Starting MLOps Pipeline for source: ibm at 2025-06-06T11:27:24.980286
Output Directory: results/experiment_1/run_20250606_112624/mlops/ibm
Evaluate Only: False
Detect Drift: False
Reference Data Path (for drift): None
Reference Artifacts Directory: None
Retrain on Drift: True

Executing: python /Users/baueteeling/Library/CloudStorage/OneDrive-Personal/ONEDRIVE/STUDIE/THESIS/AttritionMLOps/scripts/01_data_acquirer.py --input_file /Users/baueteeling/Library/CloudStorage/OneDrive-Personal/ONEDRIVE/STUDIE/THESIS/AttritionMLOps/scripts/../data/ibm_dataset.csv --output_file results/experiment_1/run_20250606_112624/mlops/ibm/01_ibm_acquired_data.csv
--- Starting Step 1: Data Loading ---
Loading data from /Users/baueteeling/Library/CloudStorage/OneDrive-Personal/ONEDRIVE/STUDIE/THESIS/AttritionMLOps/scripts/../data/ibm_dataset.csv...
Initial dataset shape: (1470, 35)
Checking for missing values...
0
Checking for duplicate rows...
0
Saving data to results/experiment_1/run_20250606_112624/mlops/ibm/01_ibm_acquired_data.csv...
--- Finished Step 1: Data Loading ---
Finished with exit code: 0

Executing: python /Users/baueteeling/Library/CloudStorage/OneDrive-Personal/ONEDRIVE/STUDIE/THESIS/AttritionMLOps/scripts/02a_preprocessorIBM.py --input_file results/experiment_1/run_20250606_112624/mlops/ibm/01_ibm_acquired_data.csv --output_file results/experiment_1/run_20250606_112624/mlops/ibm/02_ibm_preprocessed_data.csv
--- Starting Step 2: Pre-processing IBM dataset ---
Input file: results/experiment_1/run_20250606_112624/mlops/ibm/01_ibm_acquired_data.csv
Output file: results/experiment_1/run_20250606_112624/mlops/ibm/02_ibm_preprocessed_data.csv
Preprocessor artifact path: artifacts/IBM_preprocessor.pkl
Loading data from results/experiment_1/run_20250606_112624/mlops/ibm/01_ibm_acquired_data.csv...
Removed columns: ['YearsWithCurrManager', 'TrainingTimesLastYear', 'StockOptionLevel', 'StandardHours', 'RelationshipSatisfaction', 'PercentSalaryHike', 'Over18', 'NumCompaniesWorked', 'MonthlyRate', 'HourlyRate', 'EmployeeCount', 'EducationField', 'Education', 'DailyRate', 'BusinessTravel', 'JobRole']
Replaced 'Research & Development' with 'Other' in 'Department' column.
Numerical features (14): ['Age', 'DistanceFromHome', 'EmployeeNumber', 'EnvironmentSatisfaction', 'JobInvolvement', 'JobLevel', 'JobSatisfaction', 'MonthlyIncome', 'PerformanceRating', 'TotalWorkingYears', 'WorkLifeBalance', 'YearsAtCompany', 'YearsInCurrentRole', 'YearsSinceLastPromotion']
Categorical features (4): ['Department', 'Gender', 'MaritalStatus', 'OverTime']
Checking for missing values... 0
Categorized 'MonthlyIncome' into 10 bins (1-10).
Saving data to results/experiment_1/run_20250606_112624/mlops/ibm/02_ibm_preprocessed_data.csv...
Processed data shape: (1470, 18)
Processed data saved to: results/experiment_1/run_20250606_112624/mlops/ibm/02_ibm_preprocessed_data.csv
Saving data to results/experiment_1/run_20250606_112624/mlops/ibm/02_ibm_preprocessed_data.csv...
Final processed data saved to: results/experiment_1/run_20250606_112624/mlops/ibm/02_ibm_preprocessed_data.csv
--- Finished Step 2: Pre-processing ---
Finished with exit code: 0

Executing: python /Users/baueteeling/Library/CloudStorage/OneDrive-Personal/ONEDRIVE/STUDIE/THESIS/AttritionMLOps/scripts/03_feature_engineer.py --input_file results/experiment_1/run_20250606_112624/mlops/ibm/02_ibm_preprocessed_data.csv --output_file results/experiment_1/run_20250606_112624/mlops/ibm/03_ibm_engineered_features.csv --feature_selector_path results/experiment_1/run_20250606_112624/mlops/ibm/artifacts/feature_selector.pkl --expected_cols_path results/experiment_1/run_20250606_112624/mlops/ibm/artifacts/expected_cols.json
--- Starting Step 3: Feature Engineering ---
Loading data from results/experiment_1/run_20250606_112624/mlops/ibm/02_ibm_preprocessed_data.csv...
One-hot encoding categorical columns: ['Department', 'Gender', 'MaritalStatus', 'OverTime']
Shape after one-hot encoding: (1470, 24)
Handling column standardization. Training mode for expected_cols.json: True.
Current feature columns (post-OHE) saved to results/experiment_1/run_20250606_112624/mlops/ibm/artifacts/expected_cols.json.
Shape after handle_missing_columns: (1470, 24)
Creating new features...
PCA explained variance ratio: [0.25968146 0.12560434 0.07704039]
Shape after create_new_features: (1470, 29)
Saving data to results/experiment_1/run_20250606_112624/mlops/ibm/03_ibm_engineered_features.csv...
Engineered data shape: (1470, 30)
--- Finished Step 3: Feature Engineering ---
Finished with exit code: 0

Executing: python /Users/baueteeling/Library/CloudStorage/OneDrive-Personal/ONEDRIVE/STUDIE/THESIS/AttritionMLOps/scripts/04_model_trainer.py --input_file results/experiment_1/run_20250606_112624/mlops/ibm/03_ibm_engineered_features.csv --output_dir results/experiment_1/run_20250606_112624/mlops/ibm/artifacts
Loading data from: results/experiment_1/run_20250606_112624/mlops/ibm/03_ibm_engineered_features.csv
Saving artifacts to: results/experiment_1/run_20250606_112624/mlops/ibm/artifacts
Calculated scale_pos_weight: 5.211267605633803

Applying SMOTE to balance classes in training data...
Original class distribution in training data: [998 192]
Class distribution after SMOTE: [998 998]
Fitting 5 folds for each of 100 candidates, totalling 500 fits
/Users/baueteeling/Library/CloudStorage/OneDrive-Personal/ONEDRIVE/STUDIE/THESIS/AttritionMLOps/.venv/lib/python3.11/site-packages/xgboost/sklearn.py:1395: UserWarning: `use_label_encoder` is deprecated in 1.7.0.
  warnings.warn("`use_label_encoder` is deprecated in 1.7.0.")
/Users/baueteeling/Library/CloudStorage/OneDrive-Personal/ONEDRIVE/STUDIE/THESIS/AttritionMLOps/.venv/lib/python3.11/site-packages/xgboost/sklearn.py:835: UserWarning: `early_stopping_rounds` in `fit` method is deprecated for better compatibility with scikit-learn, use `early_stopping_rounds` in constructor or`set_params` instead.
  warnings.warn(
Best hyperparameters found:
{'colsample_bytree': 0.6092202186084168, 'gamma': 0.4165099478703662, 'learning_rate': 0.27498407767566047, 'max_depth': 10, 'min_child_weight': 10, 'n_estimators': 447, 'reg_alpha': 0.3562978380769749, 'reg_lambda': 0.906828441545754, 'subsample': 0.6360661246923176}
Best CV F1: 0.4870

F1 scores for each fold with best hyperparameters:
  fold_1: Test F1 = 0.4776, Train F1 = 0.8618
  fold_2: Test F1 = 0.5294, Train F1 = 0.8274
  fold_3: Test F1 = 0.5287, Train F1 = 0.8774
  fold_4: Test F1 = 0.5385, Train F1 = 0.8790
  fold_5: Test F1 = 0.3607, Train F1 = 0.8718

Calculating performance metrics across data splits...
Training metrics:
  Accuracy:  0.8866
  Precision: 0.8202
  Recall:    0.3802
  F1-Score:  0.5196
  AUC:       0.8913
Validation metrics:
  Accuracy:  0.8496
  Precision: 0.6667
  Recall:    0.0952
  F1-Score:  0.1667
  AUC:       0.6565
Train+Validation metrics:
  Accuracy:  0.8828
  Precision: 0.8152
  Recall:    0.3521
  F1-Score:  0.4918
  AUC:       0.8689
Test (hold-out) metrics:
  Accuracy:  0.8367
  Precision: 0.0000
  Recall:    0.0000
  F1-Score:  0.0000
  AUC:       0.7661

Training and validation metrics saved to results/experiment_1/run_20250606_112624/mlops/ibm/artifacts/training_metrics.json
Model training complete. Artifacts saved under 'results/experiment_1/run_20250606_112624/mlops/ibm/artifacts'.
Finished with exit code: 0

Executing: python /Users/baueteeling/Library/CloudStorage/OneDrive-Personal/ONEDRIVE/STUDIE/THESIS/AttritionMLOps/scripts/05_model_evaluator.py --input_file results/experiment_1/run_20250606_112624/mlops/ibm/03_ibm_engineered_features.csv --model_path results/experiment_1/run_20250606_112624/mlops/ibm/artifacts/model.pkl --output_dir results/experiment_1/run_20250606_112624/mlops/ibm
Loading data from: results/experiment_1/run_20250606_112624/mlops/ibm/03_ibm_engineered_features.csv
Splitting data into train/test to isolate the hold-out test set...
Test set shape: X_test (147, 28), y_test (147,)
Loading scaler from: results/experiment_1/run_20250606_112624/mlops/ibm/artifacts/scaler.pkl
Applying scaling to numeric columns: ['Age', 'DistanceFromHome', 'EnvironmentSatisfaction', 'JobInvolvement', 'JobLevel', 'JobSatisfaction', 'MonthlyIncome', 'PerformanceRating', 'TotalWorkingYears', 'WorkLifeBalance', 'YearsAtCompany', 'YearsInCurrentRole', 'YearsSinceLastPromotion', 'StagnationScore', 'TenureRatio', 'PCA1', 'PCA2', 'PCA3']
Loading model from: results/experiment_1/run_20250606_112624/mlops/ibm/artifacts/model.pkl
Computing point estimates...
Point estimates on the hold-out test set:
  AUC:       0.7585
  Accuracy:  0.8299
  Precision: 0.4615
  Recall:    0.2500
  F1‐Score:  0.3243

Computing fairness metrics...
  Demographic Parity Difference (Gender): 0.0144
  Equalized Odds Difference (Gender):     0.2222
  Demographic Parity Difference (Age Binned): 0.3000
  Equalized Odds Difference (Age Binned):     0.4286

Computing bootstrap confidence intervals...

95% Bootstrap confidence intervals (n_boot=1000):
  AUC CI:       [0.6467, 0.8664]
  Accuracy CI:  [0.7755, 0.8912]
  Precision CI: [0.2000, 0.7273]
  Recall CI:    [0.0952, 0.4334]
  F1‐Score CI:  [0.1333, 0.5003]

Evaluation summary saved to: results/experiment_1/run_20250606_112624/mlops/ibm/evaluation_summary.json

Model Performance Metrics:
+-----------+------------------+----------------+----------------+
| Metric    |   Point Estimate |   95% CI Lower |   95% CI Upper |
+===========+==================+================+================+
| AUC       |           0.7585 |         0.6467 |         0.8664 |
+-----------+------------------+----------------+----------------+
| Accuracy  |           0.8299 |         0.7755 |         0.8912 |
+-----------+------------------+----------------+----------------+
| Precision |           0.4615 |         0.2    |         0.7273 |
+-----------+------------------+----------------+----------------+
| Recall    |           0.25   |         0.0952 |         0.4334 |
+-----------+------------------+----------------+----------------+
| F1-Score  |           0.3243 |         0.1333 |         0.5003 |
+-----------+------------------+----------------+----------------+

Fairness Metrics:
+---------------------+-------------------------------+---------+
| Sensitive Feature   | Metric                        |   Value |
+=====================+===============================+=========+
| Gender              | Demographic Parity Difference |  0.0144 |
+---------------------+-------------------------------+---------+
| Gender              | Equalized Odds Difference     |  0.2222 |
+---------------------+-------------------------------+---------+
| Age (Binned)        | Demographic Parity Difference |  0.3    |
+---------------------+-------------------------------+---------+
| Age (Binned)        | Equalized Odds Difference     |  0.4286 |
+---------------------+-------------------------------+---------+
--- Finished Step 5: Model Evaluation ---
Finished with exit code: 0

Executing: python /Users/baueteeling/Library/CloudStorage/OneDrive-Personal/ONEDRIVE/STUDIE/THESIS/AttritionMLOps/scripts/../monitoring/performance_tracker.py --model_path results/experiment_1/run_20250606_112624/mlops/ibm/artifacts/model.pkl --reference_data results/experiment_1/run_20250606_112624/mlops/ibm/03_ibm_engineered_features.csv --output_dir results/experiment_1/run_20250606_112624/mlops/ibm
Tracking model performance on results/experiment_1/run_20250606_112624/mlops/ibm/03_ibm_engineered_features.csv
Loading object from results/experiment_1/run_20250606_112624/mlops/ibm/artifacts/model.pkl...
Loading data from results/experiment_1/run_20250606_112624/mlops/ibm/03_ibm_engineered_features.csv...
Traceback (most recent call last):
  File "/Users/baueteeling/Library/CloudStorage/OneDrive-Personal/ONEDRIVE/STUDIE/THESIS/AttritionMLOps/scripts/../monitoring/performance_tracker.py", line 103, in <module>
    track_model_performance(args.model_path, args.reference_data, args.output_dir, args.threshold)
  File "/Users/baueteeling/Library/CloudStorage/OneDrive-Personal/ONEDRIVE/STUDIE/THESIS/AttritionMLOps/scripts/../monitoring/performance_tracker.py", line 42, in track_model_performance
    y_pred_proba = model.predict_proba(X)[:, 1]
                   ^^^^^^^^^^^^^^^^^^^^^^
  File "/Users/baueteeling/Library/CloudStorage/OneDrive-Personal/ONEDRIVE/STUDIE/THESIS/AttritionMLOps/.venv/lib/python3.11/site-packages/xgboost/sklearn.py", line 1606, in predict_proba
    class_probs = super().predict(
                  ^^^^^^^^^^^^^^^^
  File "/Users/baueteeling/Library/CloudStorage/OneDrive-Personal/ONEDRIVE/STUDIE/THESIS/AttritionMLOps/.venv/lib/python3.11/site-packages/xgboost/sklearn.py", line 1114, in predict
    predts = self.get_booster().inplace_predict(
             ^^^^^^^^^^^^^^^^^^^^^^^^^^^^^^^^^^^
  File "/Users/baueteeling/Library/CloudStorage/OneDrive-Personal/ONEDRIVE/STUDIE/THESIS/AttritionMLOps/.venv/lib/python3.11/site-packages/xgboost/core.py", line 2269, in inplace_predict
    raise ValueError(
ValueError: Feature shape mismatch, expected: 28, got 29
Finished with exit code: 1


Pipeline finished at 2025-06-06T11:28:26.095347
Total pipeline duration: 0 days 00:01:01.115061
Resource usage logged to: results/experiment_1/run_20250606_112624/mlops/ibm/resource_usage.csv
