Starting Baseline Pipeline for source: ibm at 2025-06-06T10:03:09.853962
Output Directory: results/experiment_1/run_20250606_100309/baseline/ibm
Evaluate Only: False
Reference Artifacts Directory: None

Executing: python /Users/baueteeling/Library/CloudStorage/OneDrive-Personal/ONEDRIVE/STUDIE/THESIS/AttritionMLOps/scripts/01_data_acquirer.py --input_file /Users/baueteeling/Library/CloudStorage/OneDrive-Personal/ONEDRIVE/STUDIE/THESIS/AttritionMLOps/scripts/../data/ibm_dataset.csv --output_file results/experiment_1/run_20250606_100309/baseline/ibm/01_ibm_acquired_data.csv
--- Starting Step 1: Data Loading ---
Loading data from /Users/baueteeling/Library/CloudStorage/OneDrive-Personal/ONEDRIVE/STUDIE/THESIS/AttritionMLOps/scripts/../data/ibm_dataset.csv...
Initial dataset shape: (1470, 35)
Checking for missing values...
0
Checking for duplicate rows...
0
Saving data to results/experiment_1/run_20250606_100309/baseline/ibm/01_ibm_acquired_data.csv...
--- Finished Step 1: Data Loading ---
Finished with exit code: 0

Executing: python /Users/baueteeling/Library/CloudStorage/OneDrive-Personal/ONEDRIVE/STUDIE/THESIS/AttritionMLOps/scripts/02a_preprocessorIBM.py --input_file results/experiment_1/run_20250606_100309/baseline/ibm/01_ibm_acquired_data.csv --output_file results/experiment_1/run_20250606_100309/baseline/ibm/02_ibm_preprocessed_data.csv
--- Starting Step 2: Pre-processing IBM dataset ---
Input file: results/experiment_1/run_20250606_100309/baseline/ibm/01_ibm_acquired_data.csv
Output file: results/experiment_1/run_20250606_100309/baseline/ibm/02_ibm_preprocessed_data.csv
Preprocessor artifact path: artifacts/IBM_preprocessor.pkl
Loading data from results/experiment_1/run_20250606_100309/baseline/ibm/01_ibm_acquired_data.csv...
Removed columns: ['YearsWithCurrManager', 'TrainingTimesLastYear', 'StockOptionLevel', 'StandardHours', 'RelationshipSatisfaction', 'PercentSalaryHike', 'Over18', 'NumCompaniesWorked', 'MonthlyRate', 'HourlyRate', 'EmployeeCount', 'EducationField', 'Education', 'DailyRate', 'BusinessTravel', 'JobRole']
Replaced 'Research & Development' with 'Other' in 'Department' column.
Numerical features (14): ['Age', 'DistanceFromHome', 'EmployeeNumber', 'EnvironmentSatisfaction', 'JobInvolvement', 'JobLevel', 'JobSatisfaction', 'MonthlyIncome', 'PerformanceRating', 'TotalWorkingYears', 'WorkLifeBalance', 'YearsAtCompany', 'YearsInCurrentRole', 'YearsSinceLastPromotion']
Categorical features (4): ['Department', 'Gender', 'MaritalStatus', 'OverTime']
Checking for missing values... 0
Categorized 'MonthlyIncome' into 10 bins (1-10).
Saving data to results/experiment_1/run_20250606_100309/baseline/ibm/02_ibm_preprocessed_data.csv...
Processed data shape: (1470, 18)
Processed data saved to: results/experiment_1/run_20250606_100309/baseline/ibm/02_ibm_preprocessed_data.csv
Saving data to results/experiment_1/run_20250606_100309/baseline/ibm/02_ibm_preprocessed_data.csv...
Final processed data saved to: results/experiment_1/run_20250606_100309/baseline/ibm/02_ibm_preprocessed_data.csv
--- Finished Step 2: Pre-processing ---
Finished with exit code: 0

Executing: python /Users/baueteeling/Library/CloudStorage/OneDrive-Personal/ONEDRIVE/STUDIE/THESIS/AttritionMLOps/scripts/03_feature_engineer.py --input_file results/experiment_1/run_20250606_100309/baseline/ibm/02_ibm_preprocessed_data.csv --output_file results/experiment_1/run_20250606_100309/baseline/ibm/03_ibm_engineered_features.csv --feature_selector_path results/experiment_1/run_20250606_100309/baseline/ibm/artifacts/feature_selector.pkl --expected_cols_path results/experiment_1/run_20250606_100309/baseline/ibm/artifacts/expected_cols.json
--- Starting Step 3: Feature Engineering ---
Loading data from results/experiment_1/run_20250606_100309/baseline/ibm/02_ibm_preprocessed_data.csv...
One-hot encoding categorical columns: ['Department', 'Gender', 'MaritalStatus', 'OverTime']
Shape after one-hot encoding: (1470, 24)
Handling column standardization. Training mode for expected_cols.json: True.
Current feature columns (post-OHE) saved to results/experiment_1/run_20250606_100309/baseline/ibm/artifacts/expected_cols.json.
Shape after handle_missing_columns: (1470, 24)
Creating new features...
PCA explained variance ratio: [0.25968146 0.12560435 0.07704041]
Shape after create_new_features: (1470, 29)
Saving data to results/experiment_1/run_20250606_100309/baseline/ibm/03_ibm_engineered_features.csv...
Engineered data shape: (1470, 30)
--- Finished Step 3: Feature Engineering ---
Finished with exit code: 0

Executing: python /Users/baueteeling/Library/CloudStorage/OneDrive-Personal/ONEDRIVE/STUDIE/THESIS/AttritionMLOps/scripts/04_model_trainer.py --input_file results/experiment_1/run_20250606_100309/baseline/ibm/03_ibm_engineered_features.csv --output_dir results/experiment_1/run_20250606_100309/baseline/ibm/artifacts
Traceback (most recent call last):
  File "/Users/baueteeling/Library/CloudStorage/OneDrive-Personal/ONEDRIVE/STUDIE/THESIS/AttritionMLOps/scripts/04_model_trainer.py", line 10, in <module>
    from imblearn.over_sampling import SMOTE
ModuleNotFoundError: No module named 'imblearn'
Finished with exit code: 1


PIPELINE FAILED: Script python /Users/baueteeling/Library/CloudStorage/OneDrive-Personal/ONEDRIVE/STUDIE/THESIS/AttritionMLOps/scripts/04_model_trainer.py --input_file results/experiment_1/run_20250606_100309/baseline/ibm/03_ibm_engineered_features.csv --output_dir results/experiment_1/run_20250606_100309/baseline/ibm/artifacts failed with exit code 1. Check log: results/experiment_1/run_20250606_100309/baseline/ibm/pipeline_log.txt

Pipeline finished at 2025-06-06T10:03:14.220511
Total pipeline duration: 0 days 00:00:04.366549
Resource usage logged to: results/experiment_1/run_20250606_100309/baseline/ibm/resource_usage.csv
