Starting Baseline Pipeline for source: ibm at 2025-06-04T12:23:06.464631
Output Directory: results/experiment_1/run_20250604_122306/baseline/ibm
Evaluate Only: False
Reference Artifacts Directory: None

Executing: python /Users/baueteeling/Library/CloudStorage/OneDrive-Personal/ONEDRIVE/STUDIE/THESIS/AttritionMLOps/scripts/01_data_acquirer.py --input_file /Users/baueteeling/Library/CloudStorage/OneDrive-Personal/ONEDRIVE/STUDIE/THESIS/AttritionMLOps/scripts/../data/ibm_dataset.csv --output_file results/experiment_1/run_20250604_122306/baseline/ibm/01_ibm_acquired_data.csv
--- Starting Step 1: Data Loading ---
Loading data from /Users/baueteeling/Library/CloudStorage/OneDrive-Personal/ONEDRIVE/STUDIE/THESIS/AttritionMLOps/scripts/../data/ibm_dataset.csv...
Initial dataset shape: (1470, 35)
Checking for missing values...
0
Checking for duplicate rows...
0
Saving data to results/experiment_1/run_20250604_122306/baseline/ibm/01_ibm_acquired_data.csv...
--- Finished Step 1: Data Loading ---
Finished with exit code: 0

Executing: python /Users/baueteeling/Library/CloudStorage/OneDrive-Personal/ONEDRIVE/STUDIE/THESIS/AttritionMLOps/scripts/02a_preprocessorIBM.py --input_file results/experiment_1/run_20250604_122306/baseline/ibm/01_ibm_acquired_data.csv --output_file results/experiment_1/run_20250604_122306/baseline/ibm/02_ibm_preprocessed_data.csv
--- Starting Step 2: Pre-processing IBM dataset ---
Input file: results/experiment_1/run_20250604_122306/baseline/ibm/01_ibm_acquired_data.csv
Output file: results/experiment_1/run_20250604_122306/baseline/ibm/02_ibm_preprocessed_data.csv
Preprocessor artifact path: artifacts/IBM_preprocessor.pkl
Loading data from results/experiment_1/run_20250604_122306/baseline/ibm/01_ibm_acquired_data.csv...
Removed columns: ['YearsWithCurrManager', 'TrainingTimesLastYear', 'StockOptionLevel', 'StandardHours', 'RelationshipSatisfaction', 'PercentSalaryHike', 'Over18', 'NumCompaniesWorked', 'MonthlyRate', 'HourlyRate', 'EmployeeCount', 'EducationField', 'Education', 'DailyRate', 'BusinessTravel', 'JobRole']
Replaced 'Research & Development' with 'Other' in 'Department' column.
Numerical features (14): ['Age', 'DistanceFromHome', 'EmployeeNumber', 'EnvironmentSatisfaction', 'JobInvolvement', 'JobLevel', 'JobSatisfaction', 'MonthlyIncome', 'PerformanceRating', 'TotalWorkingYears', 'WorkLifeBalance', 'YearsAtCompany', 'YearsInCurrentRole', 'YearsSinceLastPromotion']
Categorical features (4): ['Department', 'Gender', 'MaritalStatus', 'OverTime']
Checking for missing values... 0
Categorized 'MonthlyIncome' into 10 bins (1-10).
Saving data to results/experiment_1/run_20250604_122306/baseline/ibm/02_ibm_preprocessed_data.csv...
Processed data shape: (1470, 18)
Processed data saved to: results/experiment_1/run_20250604_122306/baseline/ibm/02_ibm_preprocessed_data.csv
Saving data to results/experiment_1/run_20250604_122306/baseline/ibm/02_ibm_preprocessed_data.csv...
Final processed data saved to: results/experiment_1/run_20250604_122306/baseline/ibm/02_ibm_preprocessed_data.csv
--- Finished Step 2: Pre-processing ---
Finished with exit code: 0

Executing: python /Users/baueteeling/Library/CloudStorage/OneDrive-Personal/ONEDRIVE/STUDIE/THESIS/AttritionMLOps/scripts/03_feature_engineer.py --input_file results/experiment_1/run_20250604_122306/baseline/ibm/02_ibm_preprocessed_data.csv --output_file results/experiment_1/run_20250604_122306/baseline/ibm/03_ibm_engineered_features.csv --feature_selector_path results/experiment_1/run_20250604_122306/baseline/ibm/artifacts/feature_selector.pkl --expected_cols_path results/experiment_1/run_20250604_122306/baseline/ibm/artifacts/expected_cols.json
--- Starting Step 3: Feature Engineering ---
Loading data from results/experiment_1/run_20250604_122306/baseline/ibm/02_ibm_preprocessed_data.csv...
One-hot encoding categorical columns: ['Department', 'Gender', 'MaritalStatus', 'OverTime']
Shape after one-hot encoding: (1470, 24)
Handling column standardization. Training mode for expected_cols.json: True.
Current feature columns (post-OHE) saved to results/experiment_1/run_20250604_122306/baseline/ibm/artifacts/expected_cols.json.
Shape after handle_missing_columns: (1470, 24)
Creating new features...
PCA explained variance ratio: [0.25968146 0.12560435 0.0770404 ]
Shape after create_new_features: (1470, 29)
Saving data to results/experiment_1/run_20250604_122306/baseline/ibm/03_ibm_engineered_features.csv...
Engineered data shape: (1470, 30)
--- Finished Step 3: Feature Engineering ---
Finished with exit code: 0

Executing: python /Users/baueteeling/Library/CloudStorage/OneDrive-Personal/ONEDRIVE/STUDIE/THESIS/AttritionMLOps/scripts/04_model_trainer.py --input_file results/experiment_1/run_20250604_122306/baseline/ibm/03_ibm_engineered_features.csv --output_dir results/experiment_1/run_20250604_122306/baseline/ibm/artifacts
/Users/baueteeling/Library/CloudStorage/OneDrive-Personal/ONEDRIVE/STUDIE/THESIS/AttritionMLOps/.venv/lib/python3.11/site-packages/xgboost/sklearn.py:1395: UserWarning: `use_label_encoder` is deprecated in 1.7.0.
  warnings.warn("`use_label_encoder` is deprecated in 1.7.0.")
/Users/baueteeling/Library/CloudStorage/OneDrive-Personal/ONEDRIVE/STUDIE/THESIS/AttritionMLOps/.venv/lib/python3.11/site-packages/xgboost/sklearn.py:1395: UserWarning: `use_label_encoder` is deprecated in 1.7.0.
  warnings.warn("`use_label_encoder` is deprecated in 1.7.0.")
Loading data from: results/experiment_1/run_20250604_122306/baseline/ibm/03_ibm_engineered_features.csv
Saving artifacts to: results/experiment_1/run_20250604_122306/baseline/ibm/artifacts
Calculated scale_pos_weight: 5.211267605633803
Fitting 5 folds for each of 100 candidates, totalling 500 fits
[CV] END colsample_bytree=0.6872700594236812, learning_rate=0.2952142919229748, max_depth=5, min_child_weight=8, n_estimators=800, reg_alpha=0.596850157946487, reg_lambda=0.44583275285359114, scale_pos_weight=4.169014084507043, subsample=0.7296244459829335; total time=   0.7s
[CV] END colsample_bytree=0.5917022549267169, learning_rate=0.1012726728878613, max_depth=8, min_child_weight=9, n_estimators=660, reg_alpha=0.5247746602583891, reg_lambda=0.3998609717152555, scale_pos_weight=6.253521126760563, subsample=0.9868777594207296; total time=   0.7s
[CV] END colsample_bytree=0.6163856702151521, learning_rate=0.03718193035984624, max_depth=8, min_child_weight=3, n_estimators=975, reg_alpha=0.5142344384136116, reg_lambda=0.5924145688620425, scale_pos_weight=4.169014084507043, subsample=0.9299702033681603; total time=   1.3s
[CV] END colsample_bytree=0.6154469128110744, learning_rate=0.0823076398078035, max_depth=6, min_child_weight=7, n_estimators=527, reg_alpha=0.4951769101112702, reg_lambda=0.034388521115218396, scale_pos_weight=1, subsample=0.6293899908000085; total time=   0.6s
[CV] END colsample_bytree=0.6356745158869479, learning_rate=0.2586212527455788, max_depth=4, min_child_weight=9, n_estimators=863, reg_alpha=0.6070342476866847, reg_lambda=0.27599918202254337, scale_pos_weight=7.816901408450704, subsample=0.9010984903770198; total time=   0.6s
[CV] END colsample_bytree=0.8950877702656028, learning_rate=0.19178799243430342, max_depth=4, min_child_weight=7, n_estimators=140, reg_alpha=0.9149596755437808, reg_lambda=0.8500385777897993, scale_pos_weight=6.253521126760563, subsample=0.6654490124263246; total time=   0.2s
[CV] END colsample_bytree=0.8950877702656028, learning_rate=0.19178799243430342, max_depth=4, min_child_weight=7, n_estimators=140, reg_alpha=0.9149596755437808, reg_lambda=0.8500385777897993, scale_pos_weight=6.253521126760563, subsample=0.6654490124263246; total time=   0.2s
[CV] END colsample_bytree=0.8950877702656028, learning_rate=0.19178799243430342, max_depth=4, min_child_weight=7, n_estimators=140, reg_alpha=0.9149596755437808, reg_lambda=0.8500385777897993, scale_pos_weight=6.253521126760563, subsample=0.6654490124263246; total time=   0.2s
[CV] END colsample_bytree=0.5317791751430119, learning_rate=0.10329469651469865, max_depth=10, min_child_weight=5, n_estimators=198, reg_alpha=0.5912977877077271, reg_lambda=0.27472179299006416, scale_pos_weight=4.169014084507043, subsample=0.7361074625809747; total time=   0.2s
[CV] END colsample_bytree=0.7137705091792748, learning_rate=0.017625738023228556, max_depth=7, min_child_weight=3, n_estimators=674, reg_alpha=0.8957635956735194, reg_lambda=0.47537022318211175, scale_pos_weight=7.816901408450704, subsample=0.7542853455823514; total time=   1.2s
[CV] END colsample_bytree=0.9040601897822085, learning_rate=0.20002112695312704, max_depth=8, min_child_weight=4, n_estimators=897, reg_alpha=0.8832802589188683, reg_lambda=0.32434502100527396, scale_pos_weight=6.253521126760563, subsample=0.6781489190384875; total time=   1.2s
[CV] END colsample_bytree=0.6110539052353652, learning_rate=0.04595961020010484, max_depth=6, min_child_weight=8, n_estimators=926, reg_alpha=0.32320293202075523, reg_lambda=0.5187906217433661, scale_pos_weight=1, subsample=0.7019180855290204; total time=   0.9s
[CV] END colsample_bytree=0.5324461235544908, learning_rate=0.0861746241803034, max_depth=6, min_child_weight=7, n_estimators=485, reg_alpha=0.712270589924442, reg_lambda=0.1480869299533999, scale_pos_weight=1, subsample=0.6333905071376424; total time=   0.4s
[CV] END colsample_bytree=0.7238915822865458, learning_rate=0.1758679267213984, max_depth=9, min_child_weight=4, n_estimators=538, reg_alpha=0.7616196153287176, reg_lambda=0.23763754399239967, scale_pos_weight=7.816901408450704, subsample=0.8161529152967897; total time=   0.6s
[CV] END colsample_bytree=0.7238915822865458, learning_rate=0.1758679267213984, max_depth=9, min_child_weight=4, n_estimators=538, reg_alpha=0.7616196153287176, reg_lambda=0.23763754399239967, scale_pos_weight=7.816901408450704, subsample=0.8161529152967897; total time=   0.6s
[CV] END colsample_bytree=0.6629794526009424, learning_rate=0.07607231426966449, max_depth=4, min_child_weight=3, n_estimators=610, reg_alpha=0.22649577519793795, reg_lambda=0.6451727904094499, scale_pos_weight=6.253521126760563, subsample=0.970261632244802; total time=   0.6s
[CV] END colsample_bytree=0.8299920230170895, learning_rate=0.25516666006036476, max_depth=3, min_child_weight=4, n_estimators=671, reg_alpha=0.260829174830409, reg_lambda=0.9962536997579243, scale_pos_weight=6.253521126760563, subsample=0.7791467268035488; total time=   0.6s
[CV] END colsample_bytree=0.8299920230170895, learning_rate=0.25516666006036476, max_depth=3, min_child_weight=4, n_estimators=671, reg_alpha=0.260829174830409, reg_lambda=0.9962536997579243, scale_pos_weight=6.253521126760563, subsample=0.7791467268035488; total time=   0.5s
[CV] END colsample_bytree=0.5420699824975244, learning_rate=0.05848861422838413, max_depth=8, min_child_weight=8, n_estimators=951, reg_alpha=0.5806866214364547, reg_lambda=0.3722827665617431, scale_pos_weight=1, subsample=0.8317508845540279; total time=   0.7s
[CV] END colsample_bytree=0.5025307919231093, learning_rate=0.0582424154252496, max_depth=4, min_child_weight=2, n_estimators=921, reg_alpha=0.44842414298624733, reg_lambda=0.9944574626108207, scale_pos_weight=6.253521126760563, subsample=0.8560896106737679; total time=   0.7s
[CV] END colsample_bytree=0.75440703841938, learning_rate=0.20089978545576861, max_depth=8, min_child_weight=6, n_estimators=329, reg_alpha=0.3930977246667604, reg_lambda=0.8920465551771133, scale_pos_weight=4.169014084507043, subsample=0.7171971827552144; total time=   0.5s
[CV] END colsample_bytree=0.6750392038473378, learning_rate=0.20353100860916945, max_depth=9, min_child_weight=1, n_estimators=552, reg_alpha=0.23018526824155527, reg_lambda=0.4991933798847523, scale_pos_weight=6.253521126760563, subsample=0.5121579832157269; total time=   0.7s
[CV] END colsample_bytree=0.9833274095218347, learning_rate=0.29908599312677586, max_depth=3, min_child_weight=4, n_estimators=290, reg_alpha=0.30569701928718185, reg_lambda=0.19091103115034602, scale_pos_weight=1, subsample=0.6584610025781388; total time=   0.3s
[CV] END colsample_bytree=0.5847463733430462, learning_rate=0.17704037873750506, max_depth=9, min_child_weight=6, n_estimators=669, reg_alpha=0.9300168348108319, reg_lambda=0.0704161308495439, scale_pos_weight=5.211267605633803, subsample=0.8075036133495849; total time=   0.6s
[CV] END colsample_bytree=0.6797455756098776, learning_rate=0.098077553279348, max_depth=9, min_child_weight=10, n_estimators=966, reg_alpha=0.25620694359445806, reg_lambda=0.6115137108656805, scale_pos_weight=6.253521126760563, subsample=0.7556711994304689; total time=   1.0s
[CV] END colsample_bytree=0.7507581473435998, learning_rate=0.24948855369003253, max_depth=3, min_child_weight=8, n_estimators=611, reg_alpha=0.3967838272138884, reg_lambda=0.050768531039396936, scale_pos_weight=4.169014084507043, subsample=0.6689975784257679; total time=   0.4s
[CV] END colsample_bytree=0.9302023091558376, learning_rate=0.08507540815475921, max_depth=4, min_child_weight=6, n_estimators=882, reg_alpha=0.3601906414112629, reg_lambda=0.12706051265188478, scale_pos_weight=1, subsample=0.9139345018937943; total time=   1.0s
[CV] END colsample_bytree=0.5392281906711329, learning_rate=0.017605223024637254, max_depth=7, min_child_weight=7, n_estimators=226, reg_alpha=0.695974206093698, reg_lambda=0.4089529444142699, scale_pos_weight=5.211267605633803, subsample=0.9576068638132402; total time=   0.3s
[CV] END colsample_bytree=0.5392281906711329, learning_rate=0.017605223024637254, max_depth=7, min_child_weight=7, n_estimators=226, reg_alpha=0.695974206093698, reg_lambda=0.4089529444142699, scale_pos_weight=5.211267605633803, subsample=0.9576068638132402; total time=   0.3s
[CV] END colsample_bytree=0.7211761148655522, learning_rate=0.08193620774722096, max_depth=8, min_child_weight=9, n_estimators=587, reg_alpha=0.9346139973397097, reg_lambda=0.6382705938433504, scale_pos_weight=7.816901408450704, subsample=0.8689484583478843; total time=   0.8s[CV] END colsample_bytree=0.6872700594236812, learning_rate=0.2952142919229748, max_depth=5, min_child_weight=8, n_estimators=800, reg_alpha=0.596850157946487, reg_lambda=0.44583275285359114, scale_pos_weight=4.169014084507043, subsample=0.7296244459829335; total time=   0.7s
[CV] END colsample_bytree=0.5917022549267169, learning_rate=0.1012726728878613, max_depth=8, min_child_weight=9, n_estimators=660, reg_alpha=0.5247746602583891, reg_lambda=0.3998609717152555, scale_pos_weight=6.253521126760563, subsample=0.9868777594207296; total time=   0.7s
[CV] END colsample_bytree=0.8401537692938899, learning_rate=0.1451497755908629, max_depth=4, min_child_weight=4, n_estimators=700, reg_alpha=0.9656320330745594, reg_lambda=0.8083973481164611, scale_pos_weight=1, subsample=0.5079831261101071; total time=   0.7s
[CV] END colsample_bytree=0.6154469128110744, learning_rate=0.0823076398078035, max_depth=6, min_child_weight=7, n_estimators=527, reg_alpha=0.4951769101112702, reg_lambda=0.034388521115218396, scale_pos_weight=1, subsample=0.6293899908000085; total time=   0.5s
[CV] END colsample_bytree=0.831261142176991, learning_rate=0.10351332282682328, max_depth=8, min_child_weight=6, n_estimators=205, reg_alpha=0.5677003278199915, reg_lambda=0.03131329245555858, scale_pos_weight=5.211267605633803, subsample=0.8875664116805573; total time=   0.4s
[CV] END colsample_bytree=0.9697494707820946, learning_rate=0.27844820512829466, max_depth=8, min_child_weight=8, n_estimators=561, reg_alpha=0.1959828624191452, reg_lambda=0.045227288910538066, scale_pos_weight=7.816901408450704, subsample=0.6943386448447411; total time=   0.7s
[CV] END colsample_bytree=0.5372753218398854, learning_rate=0.3060660809801552, max_depth=10, min_child_weight=1, n_estimators=747, reg_alpha=0.005522117123602399, reg_lambda=0.8154614284548342, scale_pos_weight=1, subsample=0.855670976374325; total time=   0.5s
[CV] END colsample_bytree=0.8950877702656028, learning_rate=0.19178799243430342, max_depth=4, min_child_weight=7, n_estimators=140, reg_alpha=0.9149596755437808, reg_lambda=0.8500385777897993, scale_pos_weight=6.253521126760563, subsample=0.6654490124263246; total time=   0.2s
[CV] END colsample_bytree=0.5317791751430119, learning_rate=0.10329469651469865, max_depth=10, min_child_weight=5, n_estimators=198, reg_alpha=0.5912977877077271, reg_lambda=0.27472179299006416, scale_pos_weight=4.169014084507043, subsample=0.7361074625809747; total time=   0.3s
[CV] END colsample_bytree=0.9537832369630466, learning_rate=0.08478766874466248, max_depth=7, min_child_weight=4, n_estimators=624, reg_alpha=0.07697990982879299, reg_lambda=0.289751452913768, scale_pos_weight=6.253521126760563, subsample=0.9648488261712865; total time=   1.0s
[CV] END colsample_bytree=0.9537832369630466, learning_rate=0.08478766874466248, max_depth=7, min_child_weight=4, n_estimators=624, reg_alpha=0.07697990982879299, reg_lambda=0.289751452913768, scale_pos_weight=6.253521126760563, subsample=0.9648488261712865; total time=   1.0s
[CV] END colsample_bytree=0.9534142207728771, learning_rate=0.09163967481539059, max_depth=5, min_child_weight=9, n_estimators=727, reg_alpha=0.352568856334169, reg_lambda=0.30478125815802903, scale_pos_weight=4.169014084507043, subsample=0.7087055015743895; total time=   1.1s
[CV] END colsample_bytree=0.6110539052353652, learning_rate=0.04595961020010484, max_depth=6, min_child_weight=8, n_estimators=926, reg_alpha=0.32320293202075523, reg_lambda=0.5187906217433661, scale_pos_weight=1, subsample=0.7019180855290204; total time=   0.9s
[CV] END colsample_bytree=0.7238915822865458, learning_rate=0.1758679267213984, max_depth=9, min_child_weight=4, n_estimators=538, reg_alpha=0.7616196153287176, reg_lambda=0.23763754399239967, scale_pos_weight=7.816901408450704, subsample=0.8161529152967897; total time=   0.7s
[CV] END colsample_bytree=0.8167648553804474, learning_rate=0.17073240522242755, max_depth=10, min_child_weight=1, n_estimators=300, reg_alpha=0.32078006497173583, reg_lambda=0.18651851039985423, scale_pos_weight=7.816901408450704, subsample=0.9291794024068599; total time=   0.5s
[CV] END colsample_bytree=0.6987860105437611, learning_rate=0.16532540515824404, max_depth=10, min_child_weight=1, n_estimators=878, reg_alpha=0.3410663510502585, reg_lambda=0.11347352124058907, scale_pos_weight=5.211267605633803, subsample=0.6289708138575778; total time=   1.0s
[CV] END colsample_bytree=0.9413181715946699, learning_rate=0.06661213250241381, max_depth=3, min_child_weight=3, n_estimators=758, reg_alpha=0.7259556788702394, reg_lambda=0.8971102599525771, scale_pos_weight=1, subsample=0.8210158230771438; total time=   0.7s
[CV] END colsample_bytree=0.5025307919231093, learning_rate=0.0582424154252496, max_depth=4, min_child_weight=2, n_estimators=921, reg_alpha=0.44842414298624733, reg_lambda=0.9944574626108207, scale_pos_weight=6.253521126760563, subsample=0.8560896106737679; total time=   0.7s
[CV] END colsample_bytree=0.6186245437484, learning_rate=0.10761990944778031, max_depth=6, min_child_weight=8, n_estimators=995, reg_alpha=0.7441705230565623, reg_lambda=0.7209399242521293, scale_pos_weight=1, subsample=0.7712701152774497; total time=   0.9s
[CV] END colsample_bytree=0.6750392038473378, learning_rate=0.20353100860916945, max_depth=9, min_child_weight=1, n_estimators=552, reg_alpha=0.23018526824155527, reg_lambda=0.4991933798847523, scale_pos_weight=6.253521126760563, subsample=0.5121579832157269; total time=   0.7s
[CV] END colsample_bytree=0.9833274095218347, learning_rate=0.29908599312677586, max_depth=3, min_child_weight=4, n_estimators=290, reg_alpha=0.30569701928718185, reg_lambda=0.19091103115034602, scale_pos_weight=1, subsample=0.6584610025781388; total time=   0.3s
[CV] END colsample_bytree=0.5847463733430462, learning_rate=0.17704037873750506, max_depth=9, min_child_weight=6, n_estimators=669, reg_alpha=0.9300168348108319, reg_lambda=0.0704161308495439, scale_pos_weight=5.211267605633803, subsample=0.8075036133495849; total time=   0.6s
[CV] END colsample_bytree=0.9950269250521316, learning_rate=0.05202520457095721, max_depth=5, min_child_weight=10, n_estimators=485, reg_alpha=0.3225507642386005, reg_lambda=0.8486697949246744, scale_pos_weight=1, subsample=0.8512420419935547; total time=   0.7s
[CV] END colsample_bytree=0.7507581473435998, learning_rate=0.24948855369003253, max_depth=3, min_child_weight=8, n_estimators=611, reg_alpha=0.3967838272138884, reg_lambda=0.050768531039396936, scale_pos_weight=4.169014084507043, subsample=0.6689975784257679; total time=   0.5s
[CV] END colsample_bytree=0.687791476319972, learning_rate=0.0381945819522607, max_depth=9, min_child_weight=6, n_estimators=150, reg_alpha=0.46559801813246016, reg_lambda=0.5426446347075766, scale_pos_weight=7.816901408450704, subsample=0.9194667510346817; total time=   0.3s
[CV] END colsample_bytree=0.9302023091558376, learning_rate=0.08507540815475921, max_depth=4, min_child_weight=6, n_estimators=882, reg_alpha=0.3601906414112629, reg_lambda=0.12706051265188478, scale_pos_weight=1, subsample=0.9139345018937943; total time=   1.0s
[CV] END colsample_bytree=0.8630456668613308, learning_rate=0.30275562383876037, max_depth=6, min_child_weight=10, n_estimators=769, reg_alpha=0.04106751676787579, reg_lambda=0.39882090144479454, scale_pos_weight=4.169014084507043, subsample=0.719485710352818; total time=   0.8s
[CV] END colsample_bytree=0.7771770262557003, learning_rate=0.19351622387030568, max_depth=9, min_child_weight=3, n_estimators=175, reg_alpha=0.5660372104940763, reg_lambda=0.15864644764249103, scale_pos_weight=1, subsample=0.6709398333582008; total time=   0.3s
[CV] END colsample_bytree=0.7771770262557003, learning_rate=0.19351622387030568, max_depth=9, min_child_weight=3, n_estimators=175, reg_alpha=0.5660372104940763, reg_lambda=0.15864644764249103, scale_pos_weight=1, subsample=0.6709398333582008; total time=   0.2s
[CV] END colsample_bytree=0.5458995329067209, learning_rate=0.03824709648056803, max_depth=8, min_child_weight=4, n_estimators=552, reg_alpha=0.4741738290873252, reg_lambda=0.09783416065100148, scale_pos_weight=7.816901408450704, subsample=0.7367358853902828; total time=   0.7s
[CV] END colsample_bytree=0.8129299578571182, learning_rate=0.1609408775740263, max_depth=3, min_child_weight=8, n_estimators=424, reg_alpha=0.6839637693981411, reg_lambda=0.6158511643899138, scale_pos_weight=5.211267605633803, subsample=0.513255655270811; total time=   0.4s[CV] END colsample_bytree=0.6872700594236812, learning_rate=0.2952142919229748, max_depth=5, min_child_weight=8, n_estimators=800, reg_alpha=0.596850157946487, reg_lambda=0.44583275285359114, scale_pos_weight=4.169014084507043, subsample=0.7296244459829335; total time=   0.7s
[CV] END colsample_bytree=0.5917022549267169, learning_rate=0.1012726728878613, max_depth=8, min_child_weight=9, n_estimators=660, reg_alpha=0.5247746602583891, reg_lambda=0.3998609717152555, scale_pos_weight=6.253521126760563, subsample=0.9868777594207296; total time=   0.7s
[CV] END colsample_bytree=0.8401537692938899, learning_rate=0.1451497755908629, max_depth=4, min_child_weight=4, n_estimators=700, reg_alpha=0.9656320330745594, reg_lambda=0.8083973481164611, scale_pos_weight=1, subsample=0.5079831261101071; total time=   0.7s
[CV] END colsample_bytree=0.6154469128110744, learning_rate=0.0823076398078035, max_depth=6, min_child_weight=7, n_estimators=527, reg_alpha=0.4951769101112702, reg_lambda=0.034388521115218396, scale_pos_weight=1, subsample=0.6293899908000085; total time=   0.5s
[CV] END colsample_bytree=0.831261142176991, learning_rate=0.10351332282682328, max_depth=8, min_child_weight=6, n_estimators=205, reg_alpha=0.5677003278199915, reg_lambda=0.03131329245555858, scale_pos_weight=5.211267605633803, subsample=0.8875664116805573; total time=   0.4s
[CV] END colsample_bytree=0.9697494707820946, learning_rate=0.27844820512829466, max_depth=8, min_child_weight=8, n_estimators=561, reg_alpha=0.1959828624191452, reg_lambda=0.045227288910538066, scale_pos_weight=7.816901408450704, subsample=0.6943386448447411; total time=   0.6s
[CV] END colsample_bytree=0.5372753218398854, learning_rate=0.3060660809801552, max_depth=10, min_child_weight=1, n_estimators=747, reg_alpha=0.005522117123602399, reg_lambda=0.8154614284548342, scale_pos_weight=1, subsample=0.855670976374325; total time=   0.6s
[CV] END colsample_bytree=0.5317791751430119, learning_rate=0.10329469651469865, max_depth=10, min_child_weight=5, n_estimators=198, reg_alpha=0.5912977877077271, reg_lambda=0.27472179299006416, scale_pos_weight=4.169014084507043, subsample=0.7361074625809747; total time=   0.3s
[CV] END colsample_bytree=0.7137705091792748, learning_rate=0.017625738023228556, max_depth=7, min_child_weight=3, n_estimators=674, reg_alpha=0.8957635956735194, reg_lambda=0.47537022318211175, scale_pos_weight=7.816901408450704, subsample=0.7542853455823514; total time=   1.1s
[CV] END colsample_bytree=0.9537832369630466, learning_rate=0.08478766874466248, max_depth=7, min_child_weight=4, n_estimators=624, reg_alpha=0.07697990982879299, reg_lambda=0.289751452913768, scale_pos_weight=6.253521126760563, subsample=0.9648488261712865; total time=   1.1s
[CV] END colsample_bytree=0.9534142207728771, learning_rate=0.09163967481539059, max_depth=5, min_child_weight=9, n_estimators=727, reg_alpha=0.352568856334169, reg_lambda=0.30478125815802903, scale_pos_weight=4.169014084507043, subsample=0.7087055015743895; total time=   1.0s
[CV] END colsample_bytree=0.5324461235544908, learning_rate=0.0861746241803034, max_depth=6, min_child_weight=7, n_estimators=485, reg_alpha=0.712270589924442, reg_lambda=0.1480869299533999, scale_pos_weight=1, subsample=0.6333905071376424; total time=   0.4s
[CV] END colsample_bytree=0.9883074779163264, learning_rate=0.1333111039954694, max_depth=9, min_child_weight=5, n_estimators=835, reg_alpha=0.9082658859666537, reg_lambda=0.23956189066697242, scale_pos_weight=5.211267605633803, subsample=0.7654672916585682; total time=   1.1s
[CV] END colsample_bytree=0.8167648553804474, learning_rate=0.17073240522242755, max_depth=10, min_child_weight=1, n_estimators=300, reg_alpha=0.32078006497173583, reg_lambda=0.18651851039985423, scale_pos_weight=7.816901408450704, subsample=0.9291794024068599; total time=   0.5s
[CV] END colsample_bytree=0.6987860105437611, learning_rate=0.16532540515824404, max_depth=10, min_child_weight=1, n_estimators=878, reg_alpha=0.3410663510502585, reg_lambda=0.11347352124058907, scale_pos_weight=5.211267605633803, subsample=0.6289708138575778; total time=   1.0s
[CV] END colsample_bytree=0.9413181715946699, learning_rate=0.06661213250241381, max_depth=3, min_child_weight=3, n_estimators=758, reg_alpha=0.7259556788702394, reg_lambda=0.8971102599525771, scale_pos_weight=1, subsample=0.8210158230771438; total time=   0.6s
[CV] END colsample_bytree=0.5420699824975244, learning_rate=0.05848861422838413, max_depth=8, min_child_weight=8, n_estimators=951, reg_alpha=0.5806866214364547, reg_lambda=0.3722827665617431, scale_pos_weight=1, subsample=0.8317508845540279; total time=   0.8s
[CV] END colsample_bytree=0.6186245437484, learning_rate=0.10761990944778031, max_depth=6, min_child_weight=8, n_estimators=995, reg_alpha=0.7441705230565623, reg_lambda=0.7209399242521293, scale_pos_weight=1, subsample=0.7712701152774497; total time=   0.8s
[CV] END colsample_bytree=0.6750392038473378, learning_rate=0.20353100860916945, max_depth=9, min_child_weight=1, n_estimators=552, reg_alpha=0.23018526824155527, reg_lambda=0.4991933798847523, scale_pos_weight=6.253521126760563, subsample=0.5121579832157269; total time=   0.7s
[CV] END colsample_bytree=0.9833274095218347, learning_rate=0.29908599312677586, max_depth=3, min_child_weight=4, n_estimators=290, reg_alpha=0.30569701928718185, reg_lambda=0.19091103115034602, scale_pos_weight=1, subsample=0.6584610025781388; total time=   0.3s
[CV] END colsample_bytree=0.9833274095218347, learning_rate=0.29908599312677586, max_depth=3, min_child_weight=4, n_estimators=290, reg_alpha=0.30569701928718185, reg_lambda=0.19091103115034602, scale_pos_weight=1, subsample=0.6584610025781388; total time=   0.3s
[CV] END colsample_bytree=0.9950269250521316, learning_rate=0.05202520457095721, max_depth=5, min_child_weight=10, n_estimators=485, reg_alpha=0.3225507642386005, reg_lambda=0.8486697949246744, scale_pos_weight=1, subsample=0.8512420419935547; total time=   0.7s
[CV] END colsample_bytree=0.6797455756098776, learning_rate=0.098077553279348, max_depth=9, min_child_weight=10, n_estimators=966, reg_alpha=0.25620694359445806, reg_lambda=0.6115137108656805, scale_pos_weight=6.253521126760563, subsample=0.7556711994304689; total time=   1.0s
[CV] END colsample_bytree=0.687791476319972, learning_rate=0.0381945819522607, max_depth=9, min_child_weight=6, n_estimators=150, reg_alpha=0.46559801813246016, reg_lambda=0.5426446347075766, scale_pos_weight=7.816901408450704, subsample=0.9194667510346817; total time=   0.3s
[CV] END colsample_bytree=0.635771457909871, learning_rate=0.29957554911723094, max_depth=9, min_child_weight=4, n_estimators=873, reg_alpha=0.0516817211686077, reg_lambda=0.531354631568148, scale_pos_weight=4.169014084507043, subsample=0.8187149507491033; total time=   0.6s
[CV] END colsample_bytree=0.8630456668613308, learning_rate=0.30275562383876037, max_depth=6, min_child_weight=10, n_estimators=769, reg_alpha=0.04106751676787579, reg_lambda=0.39882090144479454, scale_pos_weight=4.169014084507043, subsample=0.719485710352818; total time=   0.7s
[CV] END colsample_bytree=0.5392281906711329, learning_rate=0.017605223024637254, max_depth=7, min_child_weight=7, n_estimators=226, reg_alpha=0.695974206093698, reg_lambda=0.4089529444142699, scale_pos_weight=5.211267605633803, subsample=0.9576068638132402; total time=   0.3s
[CV] END colsample_bytree=0.7771770262557003, learning_rate=0.19351622387030568, max_depth=9, min_child_weight=3, n_estimators=175, reg_alpha=0.5660372104940763, reg_lambda=0.15864644764249103, scale_pos_weight=1, subsample=0.6709398333582008; total time=   0.2s
[CV] END colsample_bytree=0.5458995329067209, learning_rate=0.03824709648056803, max_depth=8, min_child_weight=4, n_estimators=552, reg_alpha=0.4741738290873252, reg_lambda=0.09783416065100148, scale_pos_weight=7.816901408450704, subsample=0.7367358853902828; total time=   0.8s
[CV] END colsample_bytree=0.5866009349550076, learning_rate=0.14015549477139191, max_depth=9, min_child_weight=10, n_estimators=621, reg_alpha=0.9491457315913859, reg_lambda=0.8866803872980475, scale_pos_weight=6.253521126760563, subsample=0.6873063073132356; total time=   0.6s
[CV] END colsample_bytree=0.8129698350507863, learning_rate=0.25612805313138043, max_depth=10, min_child_weight=10, n_estimators=142, reg_alpha=0.19579113478929644, reg_lambda=0.06936130087516545, scale_pos_weight=5.211267605633803, subsample=0.5194815661551169; total time=   0.2s[CV] END colsample_bytree=0.6668543055695109, learning_rate=0.05286004537658223, max_depth=5, min_child_weight=6, n_estimators=408, reg_alpha=0.9699098521619943, reg_lambda=0.8324426408004217, scale_pos_weight=5.211267605633803, subsample=0.5909124836035503; total time=   0.4s
[CV] END colsample_bytree=0.6668543055695109, learning_rate=0.05286004537658223, max_depth=5, min_child_weight=6, n_estimators=408, reg_alpha=0.9699098521619943, reg_lambda=0.8324426408004217, scale_pos_weight=5.211267605633803, subsample=0.5909124836035503; total time=   0.5s
[CV] END colsample_bytree=0.6163856702151521, learning_rate=0.03718193035984624, max_depth=8, min_child_weight=3, n_estimators=975, reg_alpha=0.5142344384136116, reg_lambda=0.5924145688620425, scale_pos_weight=4.169014084507043, subsample=0.9299702033681603; total time=   1.3s
[CV] END colsample_bytree=0.6154469128110744, learning_rate=0.0823076398078035, max_depth=6, min_child_weight=7, n_estimators=527, reg_alpha=0.4951769101112702, reg_lambda=0.034388521115218396, scale_pos_weight=1, subsample=0.6293899908000085; total time=   0.5s
[CV] END colsample_bytree=0.9697494707820946, learning_rate=0.27844820512829466, max_depth=8, min_child_weight=8, n_estimators=561, reg_alpha=0.1959828624191452, reg_lambda=0.045227288910538066, scale_pos_weight=7.816901408450704, subsample=0.6943386448447411; total time=   0.7s
[CV] END colsample_bytree=0.6356745158869479, learning_rate=0.2586212527455788, max_depth=4, min_child_weight=9, n_estimators=863, reg_alpha=0.6070342476866847, reg_lambda=0.27599918202254337, scale_pos_weight=7.816901408450704, subsample=0.9010984903770198; total time=   0.6s
[CV] END colsample_bytree=0.8950877702656028, learning_rate=0.19178799243430342, max_depth=4, min_child_weight=7, n_estimators=140, reg_alpha=0.9149596755437808, reg_lambda=0.8500385777897993, scale_pos_weight=6.253521126760563, subsample=0.6654490124263246; total time=   0.2s
[CV] END colsample_bytree=0.5597971229691509, learning_rate=0.2239734361668985, max_depth=3, min_child_weight=5, n_estimators=317, reg_alpha=0.23598491974895575, reg_lambda=0.25606832276132396, scale_pos_weight=4.169014084507043, subsample=0.7613664146909971; total time=   0.2s
[CV] END colsample_bytree=0.7137705091792748, learning_rate=0.017625738023228556, max_depth=7, min_child_weight=3, n_estimators=674, reg_alpha=0.8957635956735194, reg_lambda=0.47537022318211175, scale_pos_weight=7.816901408450704, subsample=0.7542853455823514; total time=   1.2s
[CV] END colsample_bytree=0.9040601897822085, learning_rate=0.20002112695312704, max_depth=8, min_child_weight=4, n_estimators=897, reg_alpha=0.8832802589188683, reg_lambda=0.32434502100527396, scale_pos_weight=6.253521126760563, subsample=0.6781489190384875; total time=   1.1s
[CV] END colsample_bytree=0.6110539052353652, learning_rate=0.04595961020010484, max_depth=6, min_child_weight=8, n_estimators=926, reg_alpha=0.32320293202075523, reg_lambda=0.5187906217433661, scale_pos_weight=1, subsample=0.7019180855290204; total time=   1.0s
[CV] END colsample_bytree=0.5324461235544908, learning_rate=0.0861746241803034, max_depth=6, min_child_weight=7, n_estimators=485, reg_alpha=0.712270589924442, reg_lambda=0.1480869299533999, scale_pos_weight=1, subsample=0.6333905071376424; total time=   0.4s
[CV] END colsample_bytree=0.7238915822865458, learning_rate=0.1758679267213984, max_depth=9, min_child_weight=4, n_estimators=538, reg_alpha=0.7616196153287176, reg_lambda=0.23763754399239967, scale_pos_weight=7.816901408450704, subsample=0.8161529152967897; total time=   0.6s
[CV] END colsample_bytree=0.7238915822865458, learning_rate=0.1758679267213984, max_depth=9, min_child_weight=4, n_estimators=538, reg_alpha=0.7616196153287176, reg_lambda=0.23763754399239967, scale_pos_weight=7.816901408450704, subsample=0.8161529152967897; total time=   0.6s
[CV] END colsample_bytree=0.6629794526009424, learning_rate=0.07607231426966449, max_depth=4, min_child_weight=3, n_estimators=610, reg_alpha=0.22649577519793795, reg_lambda=0.6451727904094499, scale_pos_weight=6.253521126760563, subsample=0.970261632244802; total time=   0.5s
[CV] END colsample_bytree=0.8299920230170895, learning_rate=0.25516666006036476, max_depth=3, min_child_weight=4, n_estimators=671, reg_alpha=0.260829174830409, reg_lambda=0.9962536997579243, scale_pos_weight=6.253521126760563, subsample=0.7791467268035488; total time=   0.6s
[CV] END colsample_bytree=0.8299920230170895, learning_rate=0.25516666006036476, max_depth=3, min_child_weight=4, n_estimators=671, reg_alpha=0.260829174830409, reg_lambda=0.9962536997579243, scale_pos_weight=6.253521126760563, subsample=0.7791467268035488; total time=   0.5s
[CV] END colsample_bytree=0.5420699824975244, learning_rate=0.05848861422838413, max_depth=8, min_child_weight=8, n_estimators=951, reg_alpha=0.5806866214364547, reg_lambda=0.3722827665617431, scale_pos_weight=1, subsample=0.8317508845540279; total time=   0.8s
[CV] END colsample_bytree=0.6186245437484, learning_rate=0.10761990944778031, max_depth=6, min_child_weight=8, n_estimators=995, reg_alpha=0.7441705230565623, reg_lambda=0.7209399242521293, scale_pos_weight=1, subsample=0.7712701152774497; total time=   0.9s
[CV] END colsample_bytree=0.75440703841938, learning_rate=0.20089978545576861, max_depth=8, min_child_weight=6, n_estimators=329, reg_alpha=0.3930977246667604, reg_lambda=0.8920465551771133, scale_pos_weight=4.169014084507043, subsample=0.7171971827552144; total time=   0.4s
[CV] END colsample_bytree=0.822736147953584, learning_rate=0.06313320382211468, max_depth=6, min_child_weight=5, n_estimators=617, reg_alpha=0.3701587002554444, reg_lambda=0.015456616528867428, scale_pos_weight=7.816901408450704, subsample=0.7140920741586572; total time=   0.9s
[CV] END colsample_bytree=0.5847463733430462, learning_rate=0.17704037873750506, max_depth=9, min_child_weight=6, n_estimators=669, reg_alpha=0.9300168348108319, reg_lambda=0.0704161308495439, scale_pos_weight=5.211267605633803, subsample=0.8075036133495849; total time=   0.6s
[CV] END colsample_bytree=0.6797455756098776, learning_rate=0.098077553279348, max_depth=9, min_child_weight=10, n_estimators=966, reg_alpha=0.25620694359445806, reg_lambda=0.6115137108656805, scale_pos_weight=6.253521126760563, subsample=0.7556711994304689; total time=   1.0s
[CV] END colsample_bytree=0.687791476319972, learning_rate=0.0381945819522607, max_depth=9, min_child_weight=6, n_estimators=150, reg_alpha=0.46559801813246016, reg_lambda=0.5426446347075766, scale_pos_weight=7.816901408450704, subsample=0.9194667510346817; total time=   0.3s
[CV] END colsample_bytree=0.9302023091558376, learning_rate=0.08507540815475921, max_depth=4, min_child_weight=6, n_estimators=882, reg_alpha=0.3601906414112629, reg_lambda=0.12706051265188478, scale_pos_weight=1, subsample=0.9139345018937943; total time=   1.0s
[CV] END colsample_bytree=0.8630456668613308, learning_rate=0.30275562383876037, max_depth=6, min_child_weight=10, n_estimators=769, reg_alpha=0.04106751676787579, reg_lambda=0.39882090144479454, scale_pos_weight=4.169014084507043, subsample=0.719485710352818; total time=   0.7s
[CV] END colsample_bytree=0.7211761148655522, learning_rate=0.08193620774722096, max_depth=8, min_child_weight=9, n_estimators=587, reg_alpha=0.9346139973397097, reg_lambda=0.6382705938433504, scale_pos_weight=7.816901408450704, subsample=0.8689484583478843; total time=   0.7s
[CV] END colsample_bytree=0.5866009349550076, learning_rate=0.14015549477139191, max_depth=9, min_child_weight=10, n_estimators=621, reg_alpha=0.9491457315913859, reg_lambda=0.8866803872980475, scale_pos_weight=6.253521126760563, subsample=0.6873063073132356; total time=   0.6s
[CV] END colsample_bytree=0.8129299578571182, learning_rate=0.1609408775740263, max_depth=3, min_child_weight=8, n_estimators=424, reg_alpha=0.6839637693981411, reg_lambda=0.6158511643899138, scale_pos_weight=5.211267605633803, subsample=0.513255655270811; total time=   0.4s
[CV] END colsample_bytree=0.7928877906367316, learning_rate=0.29206907242748725, max_depth=10, min_child_weight=2, n_estimators=774, reg_alpha=0.6432882184423532, reg_lambda=0.45825289049151663, scale_pos_weight=4.169014084507043, subsample=0.9103197378719776; total time=   0.7s[CV] END colsample_bytree=0.6872700594236812, learning_rate=0.2952142919229748, max_depth=5, min_child_weight=8, n_estimators=800, reg_alpha=0.596850157946487, reg_lambda=0.44583275285359114, scale_pos_weight=4.169014084507043, subsample=0.7296244459829335; total time=   0.6s
[CV] END colsample_bytree=0.6668543055695109, learning_rate=0.05286004537658223, max_depth=5, min_child_weight=6, n_estimators=408, reg_alpha=0.9699098521619943, reg_lambda=0.8324426408004217, scale_pos_weight=5.211267605633803, subsample=0.5909124836035503; total time=   0.5s
[CV] END colsample_bytree=0.6163856702151521, learning_rate=0.03718193035984624, max_depth=8, min_child_weight=3, n_estimators=975, reg_alpha=0.5142344384136116, reg_lambda=0.5924145688620425, scale_pos_weight=4.169014084507043, subsample=0.9299702033681603; total time=   1.3s
[CV] END colsample_bytree=0.6154469128110744, learning_rate=0.0823076398078035, max_depth=6, min_child_weight=7, n_estimators=527, reg_alpha=0.4951769101112702, reg_lambda=0.034388521115218396, scale_pos_weight=1, subsample=0.6293899908000085; total time=   0.5s
[CV] END colsample_bytree=0.9697494707820946, learning_rate=0.27844820512829466, max_depth=8, min_child_weight=8, n_estimators=561, reg_alpha=0.1959828624191452, reg_lambda=0.045227288910538066, scale_pos_weight=7.816901408450704, subsample=0.6943386448447411; total time=   0.7s
[CV] END colsample_bytree=0.6356745158869479, learning_rate=0.2586212527455788, max_depth=4, min_child_weight=9, n_estimators=863, reg_alpha=0.6070342476866847, reg_lambda=0.27599918202254337, scale_pos_weight=7.816901408450704, subsample=0.9010984903770198; total time=   0.7s
[CV] END colsample_bytree=0.5317791751430119, learning_rate=0.10329469651469865, max_depth=10, min_child_weight=5, n_estimators=198, reg_alpha=0.5912977877077271, reg_lambda=0.27472179299006416, scale_pos_weight=4.169014084507043, subsample=0.7361074625809747; total time=   0.3s
[CV] END colsample_bytree=0.5597971229691509, learning_rate=0.2239734361668985, max_depth=3, min_child_weight=5, n_estimators=317, reg_alpha=0.23598491974895575, reg_lambda=0.25606832276132396, scale_pos_weight=4.169014084507043, subsample=0.7613664146909971; total time=   0.2s
[CV] END colsample_bytree=0.9537832369630466, learning_rate=0.08478766874466248, max_depth=7, min_child_weight=4, n_estimators=624, reg_alpha=0.07697990982879299, reg_lambda=0.289751452913768, scale_pos_weight=6.253521126760563, subsample=0.9648488261712865; total time=   1.0s
[CV] END colsample_bytree=0.9040601897822085, learning_rate=0.20002112695312704, max_depth=8, min_child_weight=4, n_estimators=897, reg_alpha=0.8832802589188683, reg_lambda=0.32434502100527396, scale_pos_weight=6.253521126760563, subsample=0.6781489190384875; total time=   1.1s
[CV] END colsample_bytree=0.6110539052353652, learning_rate=0.04595961020010484, max_depth=6, min_child_weight=8, n_estimators=926, reg_alpha=0.32320293202075523, reg_lambda=0.5187906217433661, scale_pos_weight=1, subsample=0.7019180855290204; total time=   0.9s
[CV] END colsample_bytree=0.5324461235544908, learning_rate=0.0861746241803034, max_depth=6, min_child_weight=7, n_estimators=485, reg_alpha=0.712270589924442, reg_lambda=0.1480869299533999, scale_pos_weight=1, subsample=0.6333905071376424; total time=   0.4s
[CV] END colsample_bytree=0.9883074779163264, learning_rate=0.1333111039954694, max_depth=9, min_child_weight=5, n_estimators=835, reg_alpha=0.9082658859666537, reg_lambda=0.23956189066697242, scale_pos_weight=5.211267605633803, subsample=0.7654672916585682; total time=   1.1s
[CV] END colsample_bytree=0.6629794526009424, learning_rate=0.07607231426966449, max_depth=4, min_child_weight=3, n_estimators=610, reg_alpha=0.22649577519793795, reg_lambda=0.6451727904094499, scale_pos_weight=6.253521126760563, subsample=0.970261632244802; total time=   0.5s
[CV] END colsample_bytree=0.6987860105437611, learning_rate=0.16532540515824404, max_depth=10, min_child_weight=1, n_estimators=878, reg_alpha=0.3410663510502585, reg_lambda=0.11347352124058907, scale_pos_weight=5.211267605633803, subsample=0.6289708138575778; total time=   1.0s
[CV] END colsample_bytree=0.9413181715946699, learning_rate=0.06661213250241381, max_depth=3, min_child_weight=3, n_estimators=758, reg_alpha=0.7259556788702394, reg_lambda=0.8971102599525771, scale_pos_weight=1, subsample=0.8210158230771438; total time=   0.7s
[CV] END colsample_bytree=0.5025307919231093, learning_rate=0.0582424154252496, max_depth=4, min_child_weight=2, n_estimators=921, reg_alpha=0.44842414298624733, reg_lambda=0.9944574626108207, scale_pos_weight=6.253521126760563, subsample=0.8560896106737679; total time=   0.7s
[CV] END colsample_bytree=0.75440703841938, learning_rate=0.20089978545576861, max_depth=8, min_child_weight=6, n_estimators=329, reg_alpha=0.3930977246667604, reg_lambda=0.8920465551771133, scale_pos_weight=4.169014084507043, subsample=0.7171971827552144; total time=   0.4s
[CV] END colsample_bytree=0.75440703841938, learning_rate=0.20089978545576861, max_depth=8, min_child_weight=6, n_estimators=329, reg_alpha=0.3930977246667604, reg_lambda=0.8920465551771133, scale_pos_weight=4.169014084507043, subsample=0.7171971827552144; total time=   0.4s
[CV] END colsample_bytree=0.822736147953584, learning_rate=0.06313320382211468, max_depth=6, min_child_weight=5, n_estimators=617, reg_alpha=0.3701587002554444, reg_lambda=0.015456616528867428, scale_pos_weight=7.816901408450704, subsample=0.7140920741586572; total time=   0.9s
[CV] END colsample_bytree=0.9833274095218347, learning_rate=0.29908599312677586, max_depth=3, min_child_weight=4, n_estimators=290, reg_alpha=0.30569701928718185, reg_lambda=0.19091103115034602, scale_pos_weight=1, subsample=0.6584610025781388; total time=   0.3s
[CV] END colsample_bytree=0.5847463733430462, learning_rate=0.17704037873750506, max_depth=9, min_child_weight=6, n_estimators=669, reg_alpha=0.9300168348108319, reg_lambda=0.0704161308495439, scale_pos_weight=5.211267605633803, subsample=0.8075036133495849; total time=   0.6s
[CV] END colsample_bytree=0.6797455756098776, learning_rate=0.098077553279348, max_depth=9, min_child_weight=10, n_estimators=966, reg_alpha=0.25620694359445806, reg_lambda=0.6115137108656805, scale_pos_weight=6.253521126760563, subsample=0.7556711994304689; total time=   0.9s
[CV] END colsample_bytree=0.687791476319972, learning_rate=0.0381945819522607, max_depth=9, min_child_weight=6, n_estimators=150, reg_alpha=0.46559801813246016, reg_lambda=0.5426446347075766, scale_pos_weight=7.816901408450704, subsample=0.9194667510346817; total time=   0.3s
[CV] END colsample_bytree=0.9302023091558376, learning_rate=0.08507540815475921, max_depth=4, min_child_weight=6, n_estimators=882, reg_alpha=0.3601906414112629, reg_lambda=0.12706051265188478, scale_pos_weight=1, subsample=0.9139345018937943; total time=   0.9s
[CV] END colsample_bytree=0.8630456668613308, learning_rate=0.30275562383876037, max_depth=6, min_child_weight=10, n_estimators=769, reg_alpha=0.04106751676787579, reg_lambda=0.39882090144479454, scale_pos_weight=4.169014084507043, subsample=0.719485710352818; total time=   0.7s
[CV] END colsample_bytree=0.7211761148655522, learning_rate=0.08193620774722096, max_depth=8, min_child_weight=9, n_estimators=587, reg_alpha=0.9346139973397097, reg_lambda=0.6382705938433504, scale_pos_weight=7.816901408450704, subsample=0.8689484583478843; total time=   0.7s
[CV] END colsample_bytree=0.5458995329067209, learning_rate=0.03824709648056803, max_depth=8, min_child_weight=4, n_estimators=552, reg_alpha=0.4741738290873252, reg_lambda=0.09783416065100148, scale_pos_weight=7.816901408450704, subsample=0.7367358853902828; total time=   0.7s
[CV] END colsample_bytree=0.8129299578571182, learning_rate=0.1609408775740263, max_depth=3, min_child_weight=8, n_estimators=424, reg_alpha=0.6839637693981411, reg_lambda=0.6158511643899138, scale_pos_weight=5.211267605633803, subsample=0.513255655270811; total time=   0.3s
[CV] END colsample_bytree=0.7928877906367316, learning_rate=0.29206907242748725, max_depth=10, min_child_weight=2, n_estimators=774, reg_alpha=0.6432882184423532, reg_lambda=0.45825289049151663, scale_pos_weight=4.169014084507043, subsample=0.9103197378719776; total time=   0.7s[CV] END colsample_bytree=0.6668543055695109, learning_rate=0.05286004537658223, max_depth=5, min_child_weight=6, n_estimators=408, reg_alpha=0.9699098521619943, reg_lambda=0.8324426408004217, scale_pos_weight=5.211267605633803, subsample=0.5909124836035503; total time=   0.5s
[CV] END colsample_bytree=0.5917022549267169, learning_rate=0.1012726728878613, max_depth=8, min_child_weight=9, n_estimators=660, reg_alpha=0.5247746602583891, reg_lambda=0.3998609717152555, scale_pos_weight=6.253521126760563, subsample=0.9868777594207296; total time=   0.7s
[CV] END colsample_bytree=0.8401537692938899, learning_rate=0.1451497755908629, max_depth=4, min_child_weight=4, n_estimators=700, reg_alpha=0.9656320330745594, reg_lambda=0.8083973481164611, scale_pos_weight=1, subsample=0.5079831261101071; total time=   0.7s
[CV] END colsample_bytree=0.8401537692938899, learning_rate=0.1451497755908629, max_depth=4, min_child_weight=4, n_estimators=700, reg_alpha=0.9656320330745594, reg_lambda=0.8083973481164611, scale_pos_weight=1, subsample=0.5079831261101071; total time=   0.7s
[CV] END colsample_bytree=0.831261142176991, learning_rate=0.10351332282682328, max_depth=8, min_child_weight=6, n_estimators=205, reg_alpha=0.5677003278199915, reg_lambda=0.03131329245555858, scale_pos_weight=5.211267605633803, subsample=0.8875664116805573; total time=   0.4s
[CV] END colsample_bytree=0.6356745158869479, learning_rate=0.2586212527455788, max_depth=4, min_child_weight=9, n_estimators=863, reg_alpha=0.6070342476866847, reg_lambda=0.27599918202254337, scale_pos_weight=7.816901408450704, subsample=0.9010984903770198; total time=   0.6s
[CV] END colsample_bytree=0.5372753218398854, learning_rate=0.3060660809801552, max_depth=10, min_child_weight=1, n_estimators=747, reg_alpha=0.005522117123602399, reg_lambda=0.8154614284548342, scale_pos_weight=1, subsample=0.855670976374325; total time=   0.6s
[CV] END colsample_bytree=0.5597971229691509, learning_rate=0.2239734361668985, max_depth=3, min_child_weight=5, n_estimators=317, reg_alpha=0.23598491974895575, reg_lambda=0.25606832276132396, scale_pos_weight=4.169014084507043, subsample=0.7613664146909971; total time=   0.2s
[CV] END colsample_bytree=0.7137705091792748, learning_rate=0.017625738023228556, max_depth=7, min_child_weight=3, n_estimators=674, reg_alpha=0.8957635956735194, reg_lambda=0.47537022318211175, scale_pos_weight=7.816901408450704, subsample=0.7542853455823514; total time=   1.2s
[CV] END colsample_bytree=0.9534142207728771, learning_rate=0.09163967481539059, max_depth=5, min_child_weight=9, n_estimators=727, reg_alpha=0.352568856334169, reg_lambda=0.30478125815802903, scale_pos_weight=4.169014084507043, subsample=0.7087055015743895; total time=   1.0s
[CV] END colsample_bytree=0.9534142207728771, learning_rate=0.09163967481539059, max_depth=5, min_child_weight=9, n_estimators=727, reg_alpha=0.352568856334169, reg_lambda=0.30478125815802903, scale_pos_weight=4.169014084507043, subsample=0.7087055015743895; total time=   1.0s
[CV] END colsample_bytree=0.5324461235544908, learning_rate=0.0861746241803034, max_depth=6, min_child_weight=7, n_estimators=485, reg_alpha=0.712270589924442, reg_lambda=0.1480869299533999, scale_pos_weight=1, subsample=0.6333905071376424; total time=   0.4s
[CV] END colsample_bytree=0.9883074779163264, learning_rate=0.1333111039954694, max_depth=9, min_child_weight=5, n_estimators=835, reg_alpha=0.9082658859666537, reg_lambda=0.23956189066697242, scale_pos_weight=5.211267605633803, subsample=0.7654672916585682; total time=   1.1s
[CV] END colsample_bytree=0.8167648553804474, learning_rate=0.17073240522242755, max_depth=10, min_child_weight=1, n_estimators=300, reg_alpha=0.32078006497173583, reg_lambda=0.18651851039985423, scale_pos_weight=7.816901408450704, subsample=0.9291794024068599; total time=   0.5s
[CV] END colsample_bytree=0.6987860105437611, learning_rate=0.16532540515824404, max_depth=10, min_child_weight=1, n_estimators=878, reg_alpha=0.3410663510502585, reg_lambda=0.11347352124058907, scale_pos_weight=5.211267605633803, subsample=0.6289708138575778; total time=   1.0s
[CV] END colsample_bytree=0.9413181715946699, learning_rate=0.06661213250241381, max_depth=3, min_child_weight=3, n_estimators=758, reg_alpha=0.7259556788702394, reg_lambda=0.8971102599525771, scale_pos_weight=1, subsample=0.8210158230771438; total time=   0.7s
[CV] END colsample_bytree=0.5025307919231093, learning_rate=0.0582424154252496, max_depth=4, min_child_weight=2, n_estimators=921, reg_alpha=0.44842414298624733, reg_lambda=0.9944574626108207, scale_pos_weight=6.253521126760563, subsample=0.8560896106737679; total time=   0.7s
[CV] END colsample_bytree=0.6186245437484, learning_rate=0.10761990944778031, max_depth=6, min_child_weight=8, n_estimators=995, reg_alpha=0.7441705230565623, reg_lambda=0.7209399242521293, scale_pos_weight=1, subsample=0.7712701152774497; total time=   0.9s
[CV] END colsample_bytree=0.6750392038473378, learning_rate=0.20353100860916945, max_depth=9, min_child_weight=1, n_estimators=552, reg_alpha=0.23018526824155527, reg_lambda=0.4991933798847523, scale_pos_weight=6.253521126760563, subsample=0.5121579832157269; total time=   0.6s
[CV] END colsample_bytree=0.822736147953584, learning_rate=0.06313320382211468, max_depth=6, min_child_weight=5, n_estimators=617, reg_alpha=0.3701587002554444, reg_lambda=0.015456616528867428, scale_pos_weight=7.816901408450704, subsample=0.7140920741586572; total time=   0.9s
[CV] END colsample_bytree=0.9950269250521316, learning_rate=0.05202520457095721, max_depth=5, min_child_weight=10, n_estimators=485, reg_alpha=0.3225507642386005, reg_lambda=0.8486697949246744, scale_pos_weight=1, subsample=0.8512420419935547; total time=   0.6s
[CV] END colsample_bytree=0.7507581473435998, learning_rate=0.24948855369003253, max_depth=3, min_child_weight=8, n_estimators=611, reg_alpha=0.3967838272138884, reg_lambda=0.050768531039396936, scale_pos_weight=4.169014084507043, subsample=0.6689975784257679; total time=   0.5s
[CV] END colsample_bytree=0.7507581473435998, learning_rate=0.24948855369003253, max_depth=3, min_child_weight=8, n_estimators=611, reg_alpha=0.3967838272138884, reg_lambda=0.050768531039396936, scale_pos_weight=4.169014084507043, subsample=0.6689975784257679; total time=   0.5s
[CV] END colsample_bytree=0.635771457909871, learning_rate=0.29957554911723094, max_depth=9, min_child_weight=4, n_estimators=873, reg_alpha=0.0516817211686077, reg_lambda=0.531354631568148, scale_pos_weight=4.169014084507043, subsample=0.8187149507491033; total time=   0.7s
[CV] END colsample_bytree=0.635771457909871, learning_rate=0.29957554911723094, max_depth=9, min_child_weight=4, n_estimators=873, reg_alpha=0.0516817211686077, reg_lambda=0.531354631568148, scale_pos_weight=4.169014084507043, subsample=0.8187149507491033; total time=   0.7s
[CV] END colsample_bytree=0.5392281906711329, learning_rate=0.017605223024637254, max_depth=7, min_child_weight=7, n_estimators=226, reg_alpha=0.695974206093698, reg_lambda=0.4089529444142699, scale_pos_weight=5.211267605633803, subsample=0.9576068638132402; total time=   0.3s
[CV] END colsample_bytree=0.7771770262557003, learning_rate=0.19351622387030568, max_depth=9, min_child_weight=3, n_estimators=175, reg_alpha=0.5660372104940763, reg_lambda=0.15864644764249103, scale_pos_weight=1, subsample=0.6709398333582008; total time=   0.2s
[CV] END colsample_bytree=0.7771770262557003, learning_rate=0.19351622387030568, max_depth=9, min_child_weight=3, n_estimators=175, reg_alpha=0.5660372104940763, reg_lambda=0.15864644764249103, scale_pos_weight=1, subsample=0.6709398333582008; total time=   0.3s
[CV] END colsample_bytree=0.5458995329067209, learning_rate=0.03824709648056803, max_depth=8, min_child_weight=4, n_estimators=552, reg_alpha=0.4741738290873252, reg_lambda=0.09783416065100148, scale_pos_weight=7.816901408450704, subsample=0.7367358853902828; total time=   0.7s
[CV] END colsample_bytree=0.8129299578571182, learning_rate=0.1609408775740263, max_depth=3, min_child_weight=8, n_estimators=424, reg_alpha=0.6839637693981411, reg_lambda=0.6158511643899138, scale_pos_weight=5.211267605633803, subsample=0.513255655270811; total time=   0.4s/Users/baueteeling/Library/CloudStorage/OneDrive-Personal/ONEDRIVE/STUDIE/THESIS/AttritionMLOps/.venv/lib/python3.11/site-packages/xgboost/sklearn.py:1395: UserWarning: `use_label_encoder` is deprecated in 1.7.0.
  warnings.warn("`use_label_encoder` is deprecated in 1.7.0.")
/Users/baueteeling/Library/CloudStorage/OneDrive-Personal/ONEDRIVE/STUDIE/THESIS/AttritionMLOps/.venv/lib/python3.11/site-packages/xgboost/sklearn.py:835: UserWarning: `early_stopping_rounds` in `fit` method is deprecated for better compatibility with scikit-learn, use `early_stopping_rounds` in constructor or`set_params` instead.
  warnings.warn(
Best hyperparameters found:
{'colsample_bytree': 0.7492210994645286, 'learning_rate': 0.03607608642622711, 'max_depth': 9, 'min_child_weight': 6, 'n_estimators': 133, 'reg_alpha': 0.5577422659504374, 'reg_lambda': 0.5865354346607591, 'scale_pos_weight': 6.253521126760563, 'subsample': 0.5637901513977819}
Best CV AUC: 0.8084

Calculating performance metrics across data splits...
Training metrics:
  Accuracy:  0.8941
  Precision: 0.6213
  Recall:    0.8802
  F1-Score:  0.7284
  AUC:       0.9525
Validation metrics:
  Accuracy:  0.7594
  Precision: 0.2609
  Recall:    0.2857
  F1-Score:  0.2727
  AUC:       0.6382
Train+Validation metrics:
  Accuracy:  0.8806
  Precision: 0.5932
  Recall:    0.8216
  F1-Score:  0.6890
  AUC:       0.9235
Test (hold-out) metrics:
  Accuracy:  0.7959
  Precision: 0.3333
  Recall:    0.2500
  F1-Score:  0.2857
  AUC:       0.7293

Training and validation metrics saved to results/experiment_1/run_20250604_122306/baseline/ibm/artifacts/training_metrics.json
Model training complete. Artifacts saved under 'results/experiment_1/run_20250604_122306/baseline/ibm/artifacts'.
[CV] END colsample_bytree=0.6668543055695109, learning_rate=0.05286004537658223, max_depth=5, min_child_weight=6, n_estimators=408, reg_alpha=0.9699098521619943, reg_lambda=0.8324426408004217, scale_pos_weight=5.211267605633803, subsample=0.5909124836035503; total time=   0.5s
[CV] END colsample_bytree=0.5917022549267169, learning_rate=0.1012726728878613, max_depth=8, min_child_weight=9, n_estimators=660, reg_alpha=0.5247746602583891, reg_lambda=0.3998609717152555, scale_pos_weight=6.253521126760563, subsample=0.9868777594207296; total time=   0.6s
[CV] END colsample_bytree=0.6163856702151521, learning_rate=0.03718193035984624, max_depth=8, min_child_weight=3, n_estimators=975, reg_alpha=0.5142344384136116, reg_lambda=0.5924145688620425, scale_pos_weight=4.169014084507043, subsample=0.9299702033681603; total time=   1.3s
[CV] END colsample_bytree=0.831261142176991, learning_rate=0.10351332282682328, max_depth=8, min_child_weight=6, n_estimators=205, reg_alpha=0.5677003278199915, reg_lambda=0.03131329245555858, scale_pos_weight=5.211267605633803, subsample=0.8875664116805573; total time=   0.4s
[CV] END colsample_bytree=0.9697494707820946, learning_rate=0.27844820512829466, max_depth=8, min_child_weight=8, n_estimators=561, reg_alpha=0.1959828624191452, reg_lambda=0.045227288910538066, scale_pos_weight=7.816901408450704, subsample=0.6943386448447411; total time=   0.6s
[CV] END colsample_bytree=0.5372753218398854, learning_rate=0.3060660809801552, max_depth=10, min_child_weight=1, n_estimators=747, reg_alpha=0.005522117123602399, reg_lambda=0.8154614284548342, scale_pos_weight=1, subsample=0.855670976374325; total time=   0.6s
[CV] END colsample_bytree=0.5317791751430119, learning_rate=0.10329469651469865, max_depth=10, min_child_weight=5, n_estimators=198, reg_alpha=0.5912977877077271, reg_lambda=0.27472179299006416, scale_pos_weight=4.169014084507043, subsample=0.7361074625809747; total time=   0.2s
[CV] END colsample_bytree=0.5597971229691509, learning_rate=0.2239734361668985, max_depth=3, min_child_weight=5, n_estimators=317, reg_alpha=0.23598491974895575, reg_lambda=0.25606832276132396, scale_pos_weight=4.169014084507043, subsample=0.7613664146909971; total time=   0.2s
[CV] END colsample_bytree=0.9537832369630466, learning_rate=0.08478766874466248, max_depth=7, min_child_weight=4, n_estimators=624, reg_alpha=0.07697990982879299, reg_lambda=0.289751452913768, scale_pos_weight=6.253521126760563, subsample=0.9648488261712865; total time=   1.0s
[CV] END colsample_bytree=0.9040601897822085, learning_rate=0.20002112695312704, max_depth=8, min_child_weight=4, n_estimators=897, reg_alpha=0.8832802589188683, reg_lambda=0.32434502100527396, scale_pos_weight=6.253521126760563, subsample=0.6781489190384875; total time=   1.1s
[CV] END colsample_bytree=0.9534142207728771, learning_rate=0.09163967481539059, max_depth=5, min_child_weight=9, n_estimators=727, reg_alpha=0.352568856334169, reg_lambda=0.30478125815802903, scale_pos_weight=4.169014084507043, subsample=0.7087055015743895; total time=   1.1s
[CV] END colsample_bytree=0.9883074779163264, learning_rate=0.1333111039954694, max_depth=9, min_child_weight=5, n_estimators=835, reg_alpha=0.9082658859666537, reg_lambda=0.23956189066697242, scale_pos_weight=5.211267605633803, subsample=0.7654672916585682; total time=   1.2s
[CV] END colsample_bytree=0.8167648553804474, learning_rate=0.17073240522242755, max_depth=10, min_child_weight=1, n_estimators=300, reg_alpha=0.32078006497173583, reg_lambda=0.18651851039985423, scale_pos_weight=7.816901408450704, subsample=0.9291794024068599; total time=   0.5s
[CV] END colsample_bytree=0.6629794526009424, learning_rate=0.07607231426966449, max_depth=4, min_child_weight=3, n_estimators=610, reg_alpha=0.22649577519793795, reg_lambda=0.6451727904094499, scale_pos_weight=6.253521126760563, subsample=0.970261632244802; total time=   0.5s
[CV] END colsample_bytree=0.8299920230170895, learning_rate=0.25516666006036476, max_depth=3, min_child_weight=4, n_estimators=671, reg_alpha=0.260829174830409, reg_lambda=0.9962536997579243, scale_pos_weight=6.253521126760563, subsample=0.7791467268035488; total time=   0.6s
[CV] END colsample_bytree=0.9413181715946699, learning_rate=0.06661213250241381, max_depth=3, min_child_weight=3, n_estimators=758, reg_alpha=0.7259556788702394, reg_lambda=0.8971102599525771, scale_pos_weight=1, subsample=0.8210158230771438; total time=   0.7s
[CV] END colsample_bytree=0.5420699824975244, learning_rate=0.05848861422838413, max_depth=8, min_child_weight=8, n_estimators=951, reg_alpha=0.5806866214364547, reg_lambda=0.3722827665617431, scale_pos_weight=1, subsample=0.8317508845540279; total time=   0.8s
[CV] END colsample_bytree=0.6186245437484, learning_rate=0.10761990944778031, max_depth=6, min_child_weight=8, n_estimators=995, reg_alpha=0.7441705230565623, reg_lambda=0.7209399242521293, scale_pos_weight=1, subsample=0.7712701152774497; total time=   0.9s
[CV] END colsample_bytree=0.822736147953584, learning_rate=0.06313320382211468, max_depth=6, min_child_weight=5, n_estimators=617, reg_alpha=0.3701587002554444, reg_lambda=0.015456616528867428, scale_pos_weight=7.816901408450704, subsample=0.7140920741586572; total time=   1.0s
[CV] END colsample_bytree=0.5847463733430462, learning_rate=0.17704037873750506, max_depth=9, min_child_weight=6, n_estimators=669, reg_alpha=0.9300168348108319, reg_lambda=0.0704161308495439, scale_pos_weight=5.211267605633803, subsample=0.8075036133495849; total time=   0.6s
[CV] END colsample_bytree=0.9950269250521316, learning_rate=0.05202520457095721, max_depth=5, min_child_weight=10, n_estimators=485, reg_alpha=0.3225507642386005, reg_lambda=0.8486697949246744, scale_pos_weight=1, subsample=0.8512420419935547; total time=   0.6s
[CV] END colsample_bytree=0.7507581473435998, learning_rate=0.24948855369003253, max_depth=3, min_child_weight=8, n_estimators=611, reg_alpha=0.3967838272138884, reg_lambda=0.050768531039396936, scale_pos_weight=4.169014084507043, subsample=0.6689975784257679; total time=   0.5s
[CV] END colsample_bytree=0.687791476319972, learning_rate=0.0381945819522607, max_depth=9, min_child_weight=6, n_estimators=150, reg_alpha=0.46559801813246016, reg_lambda=0.5426446347075766, scale_pos_weight=7.816901408450704, subsample=0.9194667510346817; total time=   0.3s
[CV] END colsample_bytree=0.9302023091558376, learning_rate=0.08507540815475921, max_depth=4, min_child_weight=6, n_estimators=882, reg_alpha=0.3601906414112629, reg_lambda=0.12706051265188478, scale_pos_weight=1, subsample=0.9139345018937943; total time=   1.0s
[CV] END colsample_bytree=0.8630456668613308, learning_rate=0.30275562383876037, max_depth=6, min_child_weight=10, n_estimators=769, reg_alpha=0.04106751676787579, reg_lambda=0.39882090144479454, scale_pos_weight=4.169014084507043, subsample=0.719485710352818; total time=   0.7s
[CV] END colsample_bytree=0.7211761148655522, learning_rate=0.08193620774722096, max_depth=8, min_child_weight=9, n_estimators=587, reg_alpha=0.9346139973397097, reg_lambda=0.6382705938433504, scale_pos_weight=7.816901408450704, subsample=0.8689484583478843; total time=   0.7s
[CV] END colsample_bytree=0.5866009349550076, learning_rate=0.14015549477139191, max_depth=9, min_child_weight=10, n_estimators=621, reg_alpha=0.9491457315913859, reg_lambda=0.8866803872980475, scale_pos_weight=6.253521126760563, subsample=0.6873063073132356; total time=   0.6s
[CV] END colsample_bytree=0.5866009349550076, learning_rate=0.14015549477139191, max_depth=9, min_child_weight=10, n_estimators=621, reg_alpha=0.9491457315913859, reg_lambda=0.8866803872980475, scale_pos_weight=6.253521126760563, subsample=0.6873063073132356; total time=   0.5s
[CV] END colsample_bytree=0.8129698350507863, learning_rate=0.25612805313138043, max_depth=10, min_child_weight=10, n_estimators=142, reg_alpha=0.19579113478929644, reg_lambda=0.06936130087516545, scale_pos_weight=5.211267605633803, subsample=0.5194815661551169; total time=   0.2s
[CV] END colsample_bytree=0.8091269421689464, learning_rate=0.11096626446661795, max_depth=4, min_child_weight=8, n_estimators=704, reg_alpha=0.8448753109694546, reg_lambda=0.023271935735825866, scale_pos_weight=5.211267605633803, subsample=0.6303472641179515; total time=   0.7s
[CV] END colsample_bytree=0.7480187271467031, learning_rate=0.21786710760758182, max_depth=4, min_child_weight=8, n_estimators=519, reg_alpha=0.41794603171557876, reg_lambda=0.9675805515202475, scale_pos_weight=6.253521126760563, subsample=0.5887197718898614; total time=   0.5s
[CV] END colsample_bytree=0.8399223899501229, learning_rate=0.23197262813421235, max_depth=5, min_child_weight=9, n_estimators=897, reg_alpha=0.9025529066795667, reg_lambda=0.5052523724478571, scale_pos_weight=1, subsample=0.6600248005153059; total time=   0.8s
[CV] END colsample_bytree=0.8159186060848996, learning_rate=0.14453365659349593, max_depth=5, min_child_weight=9, n_estimators=990, reg_alpha=0.21272789502422895, reg_lambda=0.9461945428816902, scale_pos_weight=1, subsample=0.556732301008724; total time=   0.8s
[CV] END colsample_bytree=0.5714958410264179, learning_rate=0.23845318951524166, max_depth=6, min_child_weight=1, n_estimators=352, reg_alpha=0.8384807637639851, reg_lambda=0.4260914750469411, scale_pos_weight=5.211267605633803, subsample=0.6983258009771259; total time=   0.6s
[CV] END colsample_bytree=0.6183425968410394, learning_rate=0.2823081119045639, max_depth=7, min_child_weight=4, n_estimators=903, reg_alpha=0.37625958553091576, reg_lambda=0.08350071669866876, scale_pos_weight=7.816901408450704, subsample=0.6889937950611272; total time=   0.8s
[CV] END colsample_bytree=0.8525421821483299, learning_rate=0.08461724632908638, max_depth=5, min_child_weight=7, n_estimators=225, reg_alpha=0.49262510429085915, reg_lambda=0.011353644767419069, scale_pos_weight=6.253521126760563, subsample=0.7857365126025053; total time=   0.3s
[CV] END colsample_bytree=0.9455715568490355, learning_rate=0.16831033272588997, max_depth=5, min_child_weight=5, n_estimators=775, reg_alpha=0.5538542844013208, reg_lambda=0.969302535619099, scale_pos_weight=5.211267605633803, subsample=0.5831077159546265; total time=   1.0s
[CV] END colsample_bytree=0.9793512037039231, learning_rate=0.027359169327312215, max_depth=8, min_child_weight=8, n_estimators=767, reg_alpha=0.3356600647969632, reg_lambda=0.16967990389556553, scale_pos_weight=6.253521126760563, subsample=0.7318492024699911; total time=   1.7s
[CV] END colsample_bytree=0.5752084455517641, learning_rate=0.18823921460564055, max_depth=9, min_child_weight=9, n_estimators=953, reg_alpha=0.8291642207065144, reg_lambda=0.5690814691657476, scale_pos_weight=1, subsample=0.7343465798974851; total time=   0.6s
[CV] END colsample_bytree=0.7777158528013137, learning_rate=0.24069622455415315, max_depth=7, min_child_weight=10, n_estimators=557, reg_alpha=0.37785054927578643, reg_lambda=0.24108483232963185, scale_pos_weight=1, subsample=0.5645797075757475; total time=   0.5s
[CV] END colsample_bytree=0.9770255136293612, learning_rate=0.19185239033526402, max_depth=8, min_child_weight=1, n_estimators=980, reg_alpha=0.7569991321722287, reg_lambda=0.04689646779121992, scale_pos_weight=5.211267605633803, subsample=0.7490825933229465; total time=   1.2s
[CV] END colsample_bytree=0.8040439247709426, learning_rate=0.20099329648668476, max_depth=9, min_child_weight=3, n_estimators=546, reg_alpha=0.7263970326502283, reg_lambda=0.5474463068991116, scale_pos_weight=1, subsample=0.8918265063705715; total time=   0.7s
[CV] END colsample_bytree=0.8040439247709426, learning_rate=0.20099329648668476, max_depth=9, min_child_weight=3, n_estimators=546, reg_alpha=0.7263970326502283, reg_lambda=0.5474463068991116, scale_pos_weight=1, subsample=0.8918265063705715; total time=   0.6s
[CV] END colsample_bytree=0.5379316640543319, learning_rate=0.04866391657319477, max_depth=9, min_child_weight=6, n_estimators=619, reg_alpha=0.18006727234929853, reg_lambda=0.696501466227079, scale_pos_weight=1, subsample=0.9483942049530059; total time=   0.7s
[CV] END colsample_bytree=0.5196560699205495, learning_rate=0.24982311967271278, max_depth=3, min_child_weight=6, n_estimators=338, reg_alpha=0.5116570135472612, reg_lambda=0.15697768271619372, scale_pos_weight=7.816901408450704, subsample=0.5012975121918233; total time=   0.2s
[CV] END colsample_bytree=0.9341505535177934, learning_rate=0.03535510230420458, max_depth=5, min_child_weight=4, n_estimators=818, reg_alpha=0.5365906459873325, reg_lambda=0.9240417591074331, scale_pos_weight=5.211267605633803, subsample=0.8799777044687929; total time=   1.1s
[CV] END colsample_bytree=0.553586005669888, learning_rate=0.1442237100470364, max_depth=5, min_child_weight=3, n_estimators=114, reg_alpha=0.1048691665324809, reg_lambda=0.7374052060938191, scale_pos_weight=6.253521126760563, subsample=0.5100355988888632; total time=   0.1s
[CV] END colsample_bytree=0.6610395827915891, learning_rate=0.07343440209896339, max_depth=4, min_child_weight=9, n_estimators=244, reg_alpha=0.34292686427826025, reg_lambda=0.47396994143055615, scale_pos_weight=5.211267605633803, subsample=0.8945856193036692; total time=   0.2s
[CV] END colsample_bytree=0.7492210994645286, learning_rate=0.03607608642622711, max_depth=9, min_child_weight=6, n_estimators=133, reg_alpha=0.5577422659504374, reg_lambda=0.5865354346607591, scale_pos_weight=6.253521126760563, subsample=0.5637901513977819; total time=   0.2s
[CV] END colsample_bytree=0.6418879528993622, learning_rate=0.11892468891959052, max_depth=4, min_child_weight=2, n_estimators=542, reg_alpha=0.35609672589784624, reg_lambda=0.9865152487929797, scale_pos_weight=7.816901408450704, subsample=0.9668459118799373; total time=   0.5s
[CV] END colsample_bytree=0.7622556947851273, learning_rate=0.13311904809689845, max_depth=6, min_child_weight=8, n_estimators=322, reg_alpha=0.8966102629740208, reg_lambda=0.57599841780566, scale_pos_weight=4.169014084507043, subsample=0.9327535629469901; total time=   0.4s
[CV] END colsample_bytree=0.9085360354746399, learning_rate=0.08737084811348195, max_depth=10, min_child_weight=6, n_estimators=673, reg_alpha=0.9293759891275858, reg_lambda=0.5567628930139298, scale_pos_weight=5.211267605633803, subsample=0.6399895468301421; total time=   1.0s
[CV] END colsample_bytree=0.8847464665959685, learning_rate=0.06611312456725701, max_depth=8, min_child_weight=4, n_estimators=886, reg_alpha=0.19950692733831976, reg_lambda=0.7362471836984882, scale_pos_weight=6.253521126760563, subsample=0.5574184123696018; total time=   1.4s
[CV] END colsample_bytree=0.7743015589690766, learning_rate=0.1746765939666932, max_depth=4, min_child_weight=8, n_estimators=741, reg_alpha=0.08786811124265681, reg_lambda=0.13882477344202038, scale_pos_weight=1, subsample=0.8801139299448433; total time=   0.7s
[CV] END colsample_bytree=0.5621486117427723, learning_rate=0.22926024256109329, max_depth=3, min_child_weight=2, n_estimators=687, reg_alpha=0.3792285849638004, reg_lambda=0.9264494235897112, scale_pos_weight=6.253521126760563, subsample=0.920914388379136; total time=   0.5s
[CV] END colsample_bytree=0.5698861883131447, learning_rate=0.24858019355796707, max_depth=8, min_child_weight=3, n_estimators=824, reg_alpha=0.1864049867881441, reg_lambda=0.23569174606499976, scale_pos_weight=5.211267605633803, subsample=0.953933065231258; total time=   0.6s
[CV] END colsample_bytree=0.6580982911482474, learning_rate=0.18649200273851702, max_depth=4, min_child_weight=8, n_estimators=939, reg_alpha=0.4391349085702184, reg_lambda=0.3769444294249076, scale_pos_weight=4.169014084507043, subsample=0.8120507720909188; total time=   0.7s
[CV] END colsample_bytree=0.8100363779642568, learning_rate=0.17003832759289647, max_depth=9, min_child_weight=4, n_estimators=256, reg_alpha=0.15167487973275118, reg_lambda=0.31172206779554823, scale_pos_weight=7.816901408450704, subsample=0.8892859695253755; total time=   0.4s

[CV] END colsample_bytree=0.8129698350507863, learning_rate=0.25612805313138043, max_depth=10, min_child_weight=10, n_estimators=142, reg_alpha=0.19579113478929644, reg_lambda=0.06936130087516545, scale_pos_weight=5.211267605633803, subsample=0.5194815661551169; total time=   0.2s
[CV] END colsample_bytree=0.8129698350507863, learning_rate=0.25612805313138043, max_depth=10, min_child_weight=10, n_estimators=142, reg_alpha=0.19579113478929644, reg_lambda=0.06936130087516545, scale_pos_weight=5.211267605633803, subsample=0.5194815661551169; total time=   0.2s
[CV] END colsample_bytree=0.8091269421689464, learning_rate=0.11096626446661795, max_depth=4, min_child_weight=8, n_estimators=704, reg_alpha=0.8448753109694546, reg_lambda=0.023271935735825866, scale_pos_weight=5.211267605633803, subsample=0.6303472641179515; total time=   0.7s
[CV] END colsample_bytree=0.8753073758204292, learning_rate=0.25205042178017917, max_depth=3, min_child_weight=3, n_estimators=647, reg_alpha=0.37201808579278317, reg_lambda=0.7764129607419968, scale_pos_weight=7.816901408450704, subsample=0.61929842989517; total time=   0.5s
[CV] END colsample_bytree=0.9477616142481002, learning_rate=0.12676050362024893, max_depth=6, min_child_weight=9, n_estimators=175, reg_alpha=0.3549051904627206, reg_lambda=0.9568008851264563, scale_pos_weight=6.253521126760563, subsample=0.7867189440616431; total time=   0.3s
[CV] END colsample_bytree=0.9477616142481002, learning_rate=0.12676050362024893, max_depth=6, min_child_weight=9, n_estimators=175, reg_alpha=0.3549051904627206, reg_lambda=0.9568008851264563, scale_pos_weight=6.253521126760563, subsample=0.7867189440616431; total time=   0.3s
[CV] END colsample_bytree=0.8159186060848996, learning_rate=0.14453365659349593, max_depth=5, min_child_weight=9, n_estimators=990, reg_alpha=0.21272789502422895, reg_lambda=0.9461945428816902, scale_pos_weight=1, subsample=0.556732301008724; total time=   0.9s
[CV] END colsample_bytree=0.9459484543883883, learning_rate=0.053981446507607646, max_depth=7, min_child_weight=5, n_estimators=521, reg_alpha=0.9866395785011755, reg_lambda=0.3742707957561203, scale_pos_weight=1, subsample=0.9401799843192085; total time=   1.0s
[CV] END colsample_bytree=0.6183425968410394, learning_rate=0.2823081119045639, max_depth=7, min_child_weight=4, n_estimators=903, reg_alpha=0.37625958553091576, reg_lambda=0.08350071669866876, scale_pos_weight=7.816901408450704, subsample=0.6889937950611272; total time=   0.7s
[CV] END colsample_bytree=0.9455715568490355, learning_rate=0.16831033272588997, max_depth=5, min_child_weight=5, n_estimators=775, reg_alpha=0.5538542844013208, reg_lambda=0.969302535619099, scale_pos_weight=5.211267605633803, subsample=0.5831077159546265; total time=   1.0s
[CV] END colsample_bytree=0.6766761140130264, learning_rate=0.18509683355526163, max_depth=6, min_child_weight=5, n_estimators=140, reg_alpha=0.2599498628542627, reg_lambda=0.45324084682883103, scale_pos_weight=1, subsample=0.6398817535844729; total time=   0.2s
[CV] END colsample_bytree=0.7056033604360932, learning_rate=0.19083456460698955, max_depth=10, min_child_weight=3, n_estimators=352, reg_alpha=0.9405318271353834, reg_lambda=0.4166390577384792, scale_pos_weight=7.816901408450704, subsample=0.8067075979678949; total time=   0.5s
[CV] END colsample_bytree=0.7056033604360932, learning_rate=0.19083456460698955, max_depth=10, min_child_weight=3, n_estimators=352, reg_alpha=0.9405318271353834, reg_lambda=0.4166390577384792, scale_pos_weight=7.816901408450704, subsample=0.8067075979678949; total time=   0.6s
[CV] END colsample_bytree=0.7091215181453094, learning_rate=0.28981854500620396, max_depth=4, min_child_weight=5, n_estimators=218, reg_alpha=0.41125511658536906, reg_lambda=0.7776022837352256, scale_pos_weight=5.211267605633803, subsample=0.9936380646574723; total time=   0.2s
[CV] END colsample_bytree=0.7074097511688326, learning_rate=0.09202212157921186, max_depth=10, min_child_weight=7, n_estimators=617, reg_alpha=0.691714397168912, reg_lambda=0.5343462750294631, scale_pos_weight=7.816901408450704, subsample=0.9983184185369527; total time=   0.9s
[CV] END colsample_bytree=0.7777158528013137, learning_rate=0.24069622455415315, max_depth=7, min_child_weight=10, n_estimators=557, reg_alpha=0.37785054927578643, reg_lambda=0.24108483232963185, scale_pos_weight=1, subsample=0.5645797075757475; total time=   0.5s
[CV] END colsample_bytree=0.9770255136293612, learning_rate=0.19185239033526402, max_depth=8, min_child_weight=1, n_estimators=980, reg_alpha=0.7569991321722287, reg_lambda=0.04689646779121992, scale_pos_weight=5.211267605633803, subsample=0.7490825933229465; total time=   1.1s
[CV] END colsample_bytree=0.8040439247709426, learning_rate=0.20099329648668476, max_depth=9, min_child_weight=3, n_estimators=546, reg_alpha=0.7263970326502283, reg_lambda=0.5474463068991116, scale_pos_weight=1, subsample=0.8918265063705715; total time=   0.6s
[CV] END colsample_bytree=0.6982713911606351, learning_rate=0.19662601006836206, max_depth=5, min_child_weight=1, n_estimators=232, reg_alpha=0.7964717756738773, reg_lambda=0.45934680794617244, scale_pos_weight=1, subsample=0.7460581465397691; total time=   0.3s
[CV] END colsample_bytree=0.6291221941494791, learning_rate=0.1477407268714784, max_depth=4, min_child_weight=6, n_estimators=152, reg_alpha=0.3474134082254142, reg_lambda=0.20913079107851418, scale_pos_weight=4.169014084507043, subsample=0.6200728093890966; total time=   0.1s
[CV] END colsample_bytree=0.6291221941494791, learning_rate=0.1477407268714784, max_depth=4, min_child_weight=6, n_estimators=152, reg_alpha=0.3474134082254142, reg_lambda=0.20913079107851418, scale_pos_weight=4.169014084507043, subsample=0.6200728093890966; total time=   0.1s
[CV] END colsample_bytree=0.7369808201314362, learning_rate=0.21026732155630815, max_depth=4, min_child_weight=10, n_estimators=150, reg_alpha=0.04086861626647886, reg_lambda=0.16893506307216455, scale_pos_weight=6.253521126760563, subsample=0.6738096072413418; total time=   0.1s
[CV] END colsample_bytree=0.7369808201314362, learning_rate=0.21026732155630815, max_depth=4, min_child_weight=10, n_estimators=150, reg_alpha=0.04086861626647886, reg_lambda=0.16893506307216455, scale_pos_weight=6.253521126760563, subsample=0.6738096072413418; total time=   0.2s
[CV] END colsample_bytree=0.5159023407425826, learning_rate=0.1746145927622226, max_depth=7, min_child_weight=9, n_estimators=623, reg_alpha=0.2063337184057925, reg_lambda=0.36426986104807546, scale_pos_weight=5.211267605633803, subsample=0.8451974143146826; total time=   0.5s
[...]
[CV] END colsample_bytree=0.9654645528436463, learning_rate=0.30227446256032303, max_depth=8, min_child_weight=10, n_estimators=232, reg_alpha=0.7370355567910089, reg_lambda=0.5459157701649889, scale_pos_weight=4.169014084507043, subsample=0.558533508213803; total time=   0.3s
[CV] END colsample_bytree=0.9459484543883883, learning_rate=0.053981446507607646, max_depth=7, min_child_weight=5, n_estimators=521, reg_alpha=0.9866395785011755, reg_lambda=0.3742707957561203, scale_pos_weight=1, subsample=0.9401799843192085; total time=   1.0s
[CV] END colsample_bytree=0.6183425968410394, learning_rate=0.2823081119045639, max_depth=7, min_child_weight=4, n_estimators=903, reg_alpha=0.37625958553091576, reg_lambda=0.08350071669866876, scale_pos_weight=7.816901408450704, subsample=0.6889937950611272; total time=   0.7s
[CV] END colsample_bytree=0.9455715568490355, learning_rate=0.16831033272588997, max_depth=5, min_child_weight=5, n_estimators=775, reg_alpha=0.5538542844013208, reg_lambda=0.969302535619099, scale_pos_weight=5.211267605633803, subsample=0.5831077159546265; total time=   1.0s
[CV] END colsample_bytree=0.6766761140130264, learning_rate=0.18509683355526163, max_depth=6, min_child_weight=5, n_estimators=140, reg_alpha=0.2599498628542627, reg_lambda=0.45324084682883103, scale_pos_weight=1, subsample=0.6398817535844729; total time=   0.2s
[CV] END colsample_bytree=0.6766761140130264, learning_rate=0.18509683355526163, max_depth=6, min_child_weight=5, n_estimators=140, reg_alpha=0.2599498628542627, reg_lambda=0.45324084682883103, scale_pos_weight=1, subsample=0.6398817535844729; total time=   0.2s
[CV] END colsample_bytree=0.7056033604360932, learning_rate=0.19083456460698955, max_depth=10, min_child_weight=3, n_estimators=352, reg_alpha=0.9405318271353834, reg_lambda=0.4166390577384792, scale_pos_weight=7.816901408450704, subsample=0.8067075979678949; total time=   0.5s
[CV] END colsample_bytree=0.7056033604360932, learning_rate=0.19083456460698955, max_depth=10, min_child_weight=3, n_estimators=352, reg_alpha=0.9405318271353834, reg_lambda=0.4166390577384792, scale_pos_weight=7.816901408450704, subsample=0.8067075979678949; total time=   0.5s
[CV] END colsample_bytree=0.5752084455517641, learning_rate=0.18823921460564055, max_depth=9, min_child_weight=9, n_estimators=953, reg_alpha=0.8291642207065144, reg_lambda=0.5690814691657476, scale_pos_weight=1, subsample=0.7343465798974851; total time=   0.7s
[CV] END colsample_bytree=0.7074097511688326, learning_rate=0.09202212157921186, max_depth=10, min_child_weight=7, n_estimators=617, reg_alpha=0.691714397168912, reg_lambda=0.5343462750294631, scale_pos_weight=7.816901408450704, subsample=0.9983184185369527; total time=   0.9s
[CV] END colsample_bytree=0.738105348394507, learning_rate=0.25941144701875035, max_depth=4, min_child_weight=1, n_estimators=153, reg_alpha=0.967973765439823, reg_lambda=0.08840822336564658, scale_pos_weight=4.169014084507043, subsample=0.7017414331061985; total time=   0.2s
[CV] END colsample_bytree=0.5670076142253204, learning_rate=0.01863480289400169, max_depth=9, min_child_weight=5, n_estimators=952, reg_alpha=0.6393613569742423, reg_lambda=0.8050446675193619, scale_pos_weight=6.253521126760563, subsample=0.9902313625461889; total time=   1.3s
[CV] END colsample_bytree=0.6982713911606351, learning_rate=0.19662601006836206, max_depth=5, min_child_weight=1, n_estimators=232, reg_alpha=0.7964717756738773, reg_lambda=0.45934680794617244, scale_pos_weight=1, subsample=0.7460581465397691; total time=   0.3s
[CV] END colsample_bytree=0.6291221941494791, learning_rate=0.1477407268714784, max_depth=4, min_child_weight=6, n_estimators=152, reg_alpha=0.3474134082254142, reg_lambda=0.20913079107851418, scale_pos_weight=4.169014084507043, subsample=0.6200728093890966; total time=   0.1s
[CV] END colsample_bytree=0.6291221941494791, learning_rate=0.1477407268714784, max_depth=4, min_child_weight=6, n_estimators=152, reg_alpha=0.3474134082254142, reg_lambda=0.20913079107851418, scale_pos_weight=4.169014084507043, subsample=0.6200728093890966; total time=   0.1s
[CV] END colsample_bytree=0.7369808201314362, learning_rate=0.21026732155630815, max_depth=4, min_child_weight=10, n_estimators=150, reg_alpha=0.04086861626647886, reg_lambda=0.16893506307216455, scale_pos_weight=6.253521126760563, subsample=0.6738096072413418; total time=   0.1s
[CV] END colsample_bytree=0.7369808201314362, learning_rate=0.21026732155630815, max_depth=4, min_child_weight=10, n_estimators=150, reg_alpha=0.04086861626647886, reg_lambda=0.16893506307216455, scale_pos_weight=6.253521126760563, subsample=0.6738096072413418; total time=   0.2s
[CV] END colsample_bytree=0.5159023407425826, learning_rate=0.1746145927622226, max_depth=7, min_child_weight=9, n_estimators=623, reg_alpha=0.2063337184057925, reg_lambda=0.36426986104807546, scale_pos_weight=5.211267605633803, subsample=0.8451974143146826; total time=   0.5s
[CV] END colsample_bytree=0.9341505535177934, learning_rate=0.03535510230420458, max_depth=5, min_child_weight=4, n_estimators=818, reg_alpha=0.5365906459873325, reg_lambda=0.9240417591074331, scale_pos_weight=5.211267605633803, subsample=0.8799777044687929; total time=   1.2s
[CV] END colsample_bytree=0.553586005669888, learning_rate=0.1442237100470364, max_depth=5, min_child_weight=3, n_estimators=114, reg_alpha=0.1048691665324809, reg_lambda=0.7374052060938191, scale_pos_weight=6.253521126760563, subsample=0.5100355988888632; total time=   0.1s
[CV] END colsample_bytree=0.6610395827915891, learning_rate=0.07343440209896339, max_depth=4, min_child_weight=9, n_estimators=244, reg_alpha=0.34292686427826025, reg_lambda=0.47396994143055615, scale_pos_weight=5.211267605633803, subsample=0.8945856193036692; total time=   0.3s
[CV] END colsample_bytree=0.6418879528993622, learning_rate=0.11892468891959052, max_depth=4, min_child_weight=2, n_estimators=542, reg_alpha=0.35609672589784624, reg_lambda=0.9865152487929797, scale_pos_weight=7.816901408450704, subsample=0.9668459118799373; total time=   0.5s
[CV] END colsample_bytree=0.5037671815670374, learning_rate=0.07759983931375847, max_depth=8, min_child_weight=7, n_estimators=723, reg_alpha=0.16068137325955567, reg_lambda=0.18656702405130576, scale_pos_weight=1, subsample=0.5401168728308211; total time=   0.5s
[CV] END colsample_bytree=0.9085360354746399, learning_rate=0.08737084811348195, max_depth=10, min_child_weight=6, n_estimators=673, reg_alpha=0.9293759891275858, reg_lambda=0.5567628930139298, scale_pos_weight=5.211267605633803, subsample=0.6399895468301421; total time=   1.0s
[CV] END colsample_bytree=0.8053100212208163, learning_rate=0.09658916597207673, max_depth=7, min_child_weight=4, n_estimators=944, reg_alpha=0.5325894325515859, reg_lambda=0.05182353682242691, scale_pos_weight=5.211267605633803, subsample=0.7271339861095498; total time=   1.3s
[CV] END colsample_bytree=0.7978193703039221, learning_rate=0.15147285656504753, max_depth=9, min_child_weight=3, n_estimators=705, reg_alpha=0.10669925011343606, reg_lambda=0.8507274600164547, scale_pos_weight=6.253521126760563, subsample=0.9825134553332563; total time=   1.0s
[CV] END colsample_bytree=0.5621486117427723, learning_rate=0.22926024256109329, max_depth=3, min_child_weight=2, n_estimators=687, reg_alpha=0.3792285849638004, reg_lambda=0.9264494235897112, scale_pos_weight=6.253521126760563, subsample=0.920914388379136; total time=   0.4s
[CV] END colsample_bytree=0.6580982911482474, learning_rate=0.18649200273851702, max_depth=4, min_child_weight=8, n_estimators=939, reg_alpha=0.4391349085702184, reg_lambda=0.3769444294249076, scale_pos_weight=4.169014084507043, subsample=0.8120507720909188; total time=   0.7s
[CV] END colsample_bytree=0.812118997956996, learning_rate=0.04506941221250922, max_depth=8, min_child_weight=3, n_estimators=490, reg_alpha=0.7305491368093014, reg_lambda=0.6937176074033384, scale_pos_weight=6.253521126760563, subsample=0.8970125946351479; total time=   0.9s

[CV] END colsample_bytree=0.8129698350507863, learning_rate=0.25612805313138043, max_depth=10, min_child_weight=10, n_estimators=142, reg_alpha=0.19579113478929644, reg_lambda=0.06936130087516545, scale_pos_weight=5.211267605633803, subsample=0.5194815661551169; total time=   0.2s
[CV] END colsample_bytree=0.8091269421689464, learning_rate=0.11096626446661795, max_depth=4, min_child_weight=8, n_estimators=704, reg_alpha=0.8448753109694546, reg_lambda=0.023271935735825866, scale_pos_weight=5.211267605633803, subsample=0.6303472641179515; total time=   0.7s
[CV] END colsample_bytree=0.8753073758204292, learning_rate=0.25205042178017917, max_depth=3, min_child_weight=3, n_estimators=647, reg_alpha=0.37201808579278317, reg_lambda=0.7764129607419968, scale_pos_weight=7.816901408450704, subsample=0.61929842989517; total time=   0.5s
[CV] END colsample_bytree=0.8399223899501229, learning_rate=0.23197262813421235, max_depth=5, min_child_weight=9, n_estimators=897, reg_alpha=0.9025529066795667, reg_lambda=0.5052523724478571, scale_pos_weight=1, subsample=0.6600248005153059; total time=   0.8s
[CV] END colsample_bytree=0.9654645528436463, learning_rate=0.30227446256032303, max_depth=8, min_child_weight=10, n_estimators=232, reg_alpha=0.7370355567910089, reg_lambda=0.5459157701649889, scale_pos_weight=4.169014084507043, subsample=0.558533508213803; total time=   0.3s
[CV] END colsample_bytree=0.5714958410264179, learning_rate=0.23845318951524166, max_depth=6, min_child_weight=1, n_estimators=352, reg_alpha=0.8384807637639851, reg_lambda=0.4260914750469411, scale_pos_weight=5.211267605633803, subsample=0.6983258009771259; total time=   0.5s
[CV] END colsample_bytree=0.9459484543883883, learning_rate=0.053981446507607646, max_depth=7, min_child_weight=5, n_estimators=521, reg_alpha=0.9866395785011755, reg_lambda=0.3742707957561203, scale_pos_weight=1, subsample=0.9401799843192085; total time=   0.9s
[CV] END colsample_bytree=0.8525421821483299, learning_rate=0.08461724632908638, max_depth=5, min_child_weight=7, n_estimators=225, reg_alpha=0.49262510429085915, reg_lambda=0.011353644767419069, scale_pos_weight=6.253521126760563, subsample=0.7857365126025053; total time=   0.3s
[CV] END colsample_bytree=0.8704869304553342, learning_rate=0.2401584559325715, max_depth=9, min_child_weight=9, n_estimators=100, reg_alpha=0.681039427096909, reg_lambda=0.23750647129246993, scale_pos_weight=1, subsample=0.6874352897618521; total time=   0.1s
[CV] END colsample_bytree=0.6428560431409304, learning_rate=0.2705797384568381, max_depth=8, min_child_weight=5, n_estimators=233, reg_alpha=0.8021092490267341, reg_lambda=0.9779006687542708, scale_pos_weight=7.816901408450704, subsample=0.5215799559752881; total time=   0.3s
[CV] END colsample_bytree=0.6084045532932456, learning_rate=0.09834818405182895, max_depth=3, min_child_weight=5, n_estimators=665, reg_alpha=0.5843143119231002, reg_lambda=0.901158010490989, scale_pos_weight=1, subsample=0.9576271708345532; total time=   0.4s
[CV] END colsample_bytree=0.9793512037039231, learning_rate=0.027359169327312215, max_depth=8, min_child_weight=8, n_estimators=767, reg_alpha=0.3356600647969632, reg_lambda=0.16967990389556553, scale_pos_weight=6.253521126760563, subsample=0.7318492024699911; total time=   1.5s
[CV] END colsample_bytree=0.7091215181453094, learning_rate=0.28981854500620396, max_depth=4, min_child_weight=5, n_estimators=218, reg_alpha=0.41125511658536906, reg_lambda=0.7776022837352256, scale_pos_weight=5.211267605633803, subsample=0.9936380646574723; total time=   0.2s
[CV] END colsample_bytree=0.7091215181453094, learning_rate=0.28981854500620396, max_depth=4, min_child_weight=5, n_estimators=218, reg_alpha=0.41125511658536906, reg_lambda=0.7776022837352256, scale_pos_weight=5.211267605633803, subsample=0.9936380646574723; total time=   0.2s
[CV] END colsample_bytree=0.7074097511688326, learning_rate=0.09202212157921186, max_depth=10, min_child_weight=7, n_estimators=617, reg_alpha=0.691714397168912, reg_lambda=0.5343462750294631, scale_pos_weight=7.816901408450704, subsample=0.9983184185369527; total time=   0.8s
[CV] END colsample_bytree=0.7777158528013137, learning_rate=0.24069622455415315, max_depth=7, min_child_weight=10, n_estimators=557, reg_alpha=0.37785054927578643, reg_lambda=0.24108483232963185, scale_pos_weight=1, subsample=0.5645797075757475; total time=   0.5s
[CV] END colsample_bytree=0.738105348394507, learning_rate=0.25941144701875035, max_depth=4, min_child_weight=1, n_estimators=153, reg_alpha=0.967973765439823, reg_lambda=0.08840822336564658, scale_pos_weight=4.169014084507043, subsample=0.7017414331061985; total time=   0.2s
[CV] END colsample_bytree=0.738105348394507, learning_rate=0.25941144701875035, max_depth=4, min_child_weight=1, n_estimators=153, reg_alpha=0.967973765439823, reg_lambda=0.08840822336564658, scale_pos_weight=4.169014084507043, subsample=0.7017414331061985; total time=   0.2s
[CV] END colsample_bytree=0.5670076142253204, learning_rate=0.01863480289400169, max_depth=9, min_child_weight=5, n_estimators=952, reg_alpha=0.6393613569742423, reg_lambda=0.8050446675193619, scale_pos_weight=6.253521126760563, subsample=0.9902313625461889; total time=   1.4s
[CV] END colsample_bytree=0.6982713911606351, learning_rate=0.19662601006836206, max_depth=5, min_child_weight=1, n_estimators=232, reg_alpha=0.7964717756738773, reg_lambda=0.45934680794617244, scale_pos_weight=1, subsample=0.7460581465397691; total time=   0.3s
[CV] END colsample_bytree=0.6982713911606351, learning_rate=0.19662601006836206, max_depth=5, min_child_weight=1, n_estimators=232, reg_alpha=0.7964717756738773, reg_lambda=0.45934680794617244, scale_pos_weight=1, subsample=0.7460581465397691; total time=   0.3s
[CV] END colsample_bytree=0.5379316640543319, learning_rate=0.04866391657319477, max_depth=9, min_child_weight=6, n_estimators=619, reg_alpha=0.18006727234929853, reg_lambda=0.696501466227079, scale_pos_weight=1, subsample=0.9483942049530059; total time=   0.7s
[CV] END colsample_bytree=0.5196560699205495, learning_rate=0.24982311967271278, max_depth=3, min_child_weight=6, n_estimators=338, reg_alpha=0.5116570135472612, reg_lambda=0.15697768271619372, scale_pos_weight=7.816901408450704, subsample=0.5012975121918233; total time=   0.2s
[CV] END colsample_bytree=0.9341505535177934, learning_rate=0.03535510230420458, max_depth=5, min_child_weight=4, n_estimators=818, reg_alpha=0.5365906459873325, reg_lambda=0.9240417591074331, scale_pos_weight=5.211267605633803, subsample=0.8799777044687929; total time=   1.1s
[CV] END colsample_bytree=0.553586005669888, learning_rate=0.1442237100470364, max_depth=5, min_child_weight=3, n_estimators=114, reg_alpha=0.1048691665324809, reg_lambda=0.7374052060938191, scale_pos_weight=6.253521126760563, subsample=0.5100355988888632; total time=   0.1s
[CV] END colsample_bytree=0.7492210994645286, learning_rate=0.03607608642622711, max_depth=9, min_child_weight=6, n_estimators=133, reg_alpha=0.5577422659504374, reg_lambda=0.5865354346607591, scale_pos_weight=6.253521126760563, subsample=0.5637901513977819; total time=   0.4s
[CV] END colsample_bytree=0.6418879528993622, learning_rate=0.11892468891959052, max_depth=4, min_child_weight=2, n_estimators=542, reg_alpha=0.35609672589784624, reg_lambda=0.9865152487929797, scale_pos_weight=7.816901408450704, subsample=0.9668459118799373; total time=   0.4s
[CV] END colsample_bytree=0.5037671815670374, learning_rate=0.07759983931375847, max_depth=8, min_child_weight=7, n_estimators=723, reg_alpha=0.16068137325955567, reg_lambda=0.18656702405130576, scale_pos_weight=1, subsample=0.5401168728308211; total time=   0.5s
[CV] END colsample_bytree=0.8847464665959685, learning_rate=0.06611312456725701, max_depth=8, min_child_weight=4, n_estimators=886, reg_alpha=0.19950692733831976, reg_lambda=0.7362471836984882, scale_pos_weight=6.253521126760563, subsample=0.5574184123696018; total time=   1.3s
[CV] END colsample_bytree=0.8053100212208163, learning_rate=0.09658916597207673, max_depth=7, min_child_weight=4, n_estimators=944, reg_alpha=0.5325894325515859, reg_lambda=0.05182353682242691, scale_pos_weight=5.211267605633803, subsample=0.7271339861095498; total time=   1.2s
[CV] END colsample_bytree=0.7978193703039221, learning_rate=0.15147285656504753, max_depth=9, min_child_weight=3, n_estimators=705, reg_alpha=0.10669925011343606, reg_lambda=0.8507274600164547, scale_pos_weight=6.253521126760563, subsample=0.9825134553332563; total time=   0.9s
[CV] END colsample_bytree=0.5698861883131447, learning_rate=0.24858019355796707, max_depth=8, min_child_weight=3, n_estimators=824, reg_alpha=0.1864049867881441, reg_lambda=0.23569174606499976, scale_pos_weight=5.211267605633803, subsample=0.953933065231258; total time=   0.6s
[CV] END colsample_bytree=0.7698905309573165, learning_rate=0.14162340261650172, max_depth=3, min_child_weight=9, n_estimators=244, reg_alpha=0.8995745732745685, reg_lambda=0.3838912213732114, scale_pos_weight=7.816901408450704, subsample=0.9532360554822734; total time=   0.2s
[CV] END colsample_bytree=0.7698905309573165, learning_rate=0.14162340261650172, max_depth=3, min_child_weight=9, n_estimators=244, reg_alpha=0.8995745732745685, reg_lambda=0.3838912213732114, scale_pos_weight=7.816901408450704, subsample=0.9532360554822734; total time=   0.2s
[CV] END colsample_bytree=0.812118997956996, learning_rate=0.04506941221250922, max_depth=8, min_child_weight=3, n_estimators=490, reg_alpha=0.7305491368093014, reg_lambda=0.6937176074033384, scale_pos_weight=6.253521126760563, subsample=0.8970125946351479; total time=   0.9s
Finished with exit code: 0

Executing: python /Users/baueteeling/Library/CloudStorage/OneDrive-Personal/ONEDRIVE/STUDIE/THESIS/AttritionMLOps/scripts/05_model_evaluator.py --input_file results/experiment_1/run_20250604_122306/baseline/ibm/03_ibm_engineered_features.csv --model_path results/experiment_1/run_20250604_122306/baseline/ibm/artifacts/model.pkl --output_dir results/experiment_1/run_20250604_122306/baseline/ibm
Loading data from: results/experiment_1/run_20250604_122306/baseline/ibm/03_ibm_engineered_features.csv
Splitting data into train/test to isolate the hold-out test set...
Test set shape: X_test (147, 28), y_test (147,)
Loading scaler from: results/experiment_1/run_20250604_122306/baseline/ibm/artifacts/scaler.pkl
Applying scaling to numeric columns: ['Age', 'DistanceFromHome', 'EnvironmentSatisfaction', 'JobInvolvement', 'JobLevel', 'JobSatisfaction', 'MonthlyIncome', 'PerformanceRating', 'TotalWorkingYears', 'WorkLifeBalance', 'YearsAtCompany', 'YearsInCurrentRole', 'YearsSinceLastPromotion', 'StagnationScore', 'TenureRatio', 'PCA1', 'PCA2', 'PCA3']
Loading model from: results/experiment_1/run_20250604_122306/baseline/ibm/artifacts/model.pkl
Computing point estimates...
Point estimates on the hold-out test set:
  AUC:       0.7212
  Accuracy:  0.7891
  Precision: 0.3939
  Recall:    0.5417
  F1Score:  0.4561

Computing fairness metrics...
  Demographic Parity Difference (Gender): 0.0302
  Equalized Odds Difference (Gender):     0.1556
  Demographic Parity Difference (Age Binned): 0.4778
  Equalized Odds Difference (Age Binned):     0.5238

Computing bootstrap confidence intervals...

95% Bootstrap confidence intervals (n_boot=1000):
  AUC CI:       [0.6103, 0.8376]
  Accuracy CI:  [0.7211, 0.8505]
  Precision CI: [0.2285, 0.5601]
  Recall CI:    [0.3475, 0.7500]
  F1Score CI:  [0.2807, 0.6061]

Evaluation summary saved to: results/experiment_1/run_20250604_122306/baseline/ibm/evaluation_summary.json
--- Finished Step 5: Model Evaluation ---
Finished with exit code: 0


Pipeline finished at 2025-06-04T12:23:55.612765
Total pipeline duration: 0 days 00:00:49.148134
Resource usage logged to: results/experiment_1/run_20250604_122306/baseline/ibm/resource_usage.csv
