Starting Baseline Pipeline for source: ibm at 2025-05-21 16:55:53.164830
Output Directory: results/experiment_1/baseline/ibm
Evaluate Only: False
Reference Artifacts Directory: None

Executing: python /Users/baueteeling/Library/CloudStorage/OneDrive-Personal/ONEDRIVE/STUDIE/THESIS/AttritionMLOps/scripts/01_data_acquirer.py --input_file /Users/baueteeling/Library/CloudStorage/OneDrive-Personal/ONEDRIVE/STUDIE/THESIS/AttritionMLOps/scripts/../data/ibm_dataset.csv --output_file results/experiment_1/baseline/ibm/01_ibm_acquired_data.csv
--- Starting Step 1: Data Loading ---
Loading data from /Users/baueteeling/Library/CloudStorage/OneDrive-Personal/ONEDRIVE/STUDIE/THESIS/AttritionMLOps/scripts/../data/ibm_dataset.csv...
Initial dataset shape: (1470, 35)
Checking for missing values...
0
Checking for duplicate rows...
0
Saving data to results/experiment_1/baseline/ibm/01_ibm_acquired_data.csv...
--- Finished Step 1: Data Loading ---
Finished with exit code: 0

Executing: python /Users/baueteeling/Library/CloudStorage/OneDrive-Personal/ONEDRIVE/STUDIE/THESIS/AttritionMLOps/scripts/02a_preprocessorIBM.py --input_file results/experiment_1/baseline/ibm/01_ibm_acquired_data.csv --output_file results/experiment_1/baseline/ibm/02_ibm_preprocessed_data.csv
--- Starting Step 2: Pre-processing IBM dataset ---
Input file: results/experiment_1/baseline/ibm/01_ibm_acquired_data.csv
Output file: results/experiment_1/baseline/ibm/02_ibm_preprocessed_data.csv
Preprocessor artifact path: artifacts/IBM_preprocessor.pkl
Loading data from results/experiment_1/baseline/ibm/01_ibm_acquired_data.csv...
Removed columns: ['YearsWithCurrManager', 'TrainingTimesLastYear', 'StockOptionLevel', 'StandardHours', 'RelationshipSatisfaction', 'PercentSalaryHike', 'Over18', 'NumCompaniesWorked', 'MonthlyRate', 'HourlyRate', 'EmployeeCount', 'EducationField', 'Education', 'DailyRate', 'BusinessTravel', 'JobRole']
Replaced 'Research & Development' with 'Other' in 'Department' column.
Numerical features (14): ['Age', 'DistanceFromHome', 'EmployeeNumber', 'EnvironmentSatisfaction', 'JobInvolvement', 'JobLevel', 'JobSatisfaction', 'MonthlyIncome', 'PerformanceRating', 'TotalWorkingYears', 'WorkLifeBalance', 'YearsAtCompany', 'YearsInCurrentRole', 'YearsSinceLastPromotion']
Categorical features (4): ['Department', 'Gender', 'MaritalStatus', 'OverTime']
Checking for missing values... 0
Categorized 'MonthlyIncome' into 10 bins (1-10).
Saving data to results/experiment_1/baseline/ibm/02_ibm_preprocessed_data.csv...
Processed data shape: (1470, 18)
Processed data saved to: results/experiment_1/baseline/ibm/02_ibm_preprocessed_data.csv
Saving data to results/experiment_1/baseline/ibm/02_ibm_preprocessed_data.csv...
Final processed data saved to: results/experiment_1/baseline/ibm/02_ibm_preprocessed_data.csv
--- Finished Step 2: Pre-processing ---
Finished with exit code: 0

Executing: python /Users/baueteeling/Library/CloudStorage/OneDrive-Personal/ONEDRIVE/STUDIE/THESIS/AttritionMLOps/scripts/03_feature_engineer.py --input_file results/experiment_1/baseline/ibm/02_ibm_preprocessed_data.csv --output_file results/experiment_1/baseline/ibm/03_ibm_engineered_features.csv --feature_selector_path results/experiment_1/baseline/ibm/artifacts/feature_selector.pkl --expected_cols_path results/experiment_1/baseline/ibm/artifacts/expected_cols.json
--- Starting Step 3: Feature Engineering ---
Loading data from results/experiment_1/baseline/ibm/02_ibm_preprocessed_data.csv...
One-hot encoding categorical columns: ['Department', 'Gender', 'MaritalStatus', 'OverTime']
Shape after one-hot encoding: (1470, 24)
Handling column standardization. Training mode for expected_cols.json: True
Saved current feature columns (post-OHE) to results/experiment_1/baseline/ibm/artifacts/expected_cols.json
Shape after handle_missing_columns: (1470, 24)
Creating new features...
PCA explained variance ratio: [0.25323694 0.13310718 0.09870462]
Shape after create_new_features: (1470, 38)
Performing feature selection and fitting a new selector...
Saving feature selector to: results/experiment_1/baseline/ibm/artifacts/feature_selector.pkl
Saving object to results/experiment_1/baseline/ibm/artifacts/feature_selector.pkl...
Fitted and applied new selector. New X shape: (1470, 20). Selected columns: ['Age', 'EnvironmentSatisfaction', 'JobInvolvement', 'JobLevel', 'JobSatisfaction', 'MonthlyIncome', 'TotalWorkingYears', 'YearsAtCompany', 'YearsInCurrentRole', 'MaritalStatus_Single', 'OverTime_No', 'OverTime_Yes', 'CompensationSatisfaction', 'ExperienceRatio', 'CommuteSatisfactionRatio', 'StagnationScore', 'SatisfactionIndex', 'JobSatisfaction_WorkLifeBalance', 'PCA1', 'PCA2']
Saving data to results/experiment_1/baseline/ibm/03_ibm_engineered_features.csv...
Engineered data shape: (1470, 21)
--- Finished Step 3: Feature Engineering ---
Finished with exit code: 0

Executing: python /Users/baueteeling/Library/CloudStorage/OneDrive-Personal/ONEDRIVE/STUDIE/THESIS/AttritionMLOps/scripts/04_model_trainer.py --input_file results/experiment_1/baseline/ibm/03_ibm_engineered_features.csv --output_dir results/experiment_1/baseline/ibm/artifacts
--- Starting Step 4: Model Training ---
Loading data from results/experiment_1/baseline/ibm/03_ibm_engineered_features.csv...
Overall dataset shape: X=(1470, 20), y=(1470,)
Overall y distribution:
Attrition
0    0.838776
1    0.161224
Name: proportion, dtype: float64
Train set shape: X_train=(1176, 20), y_train=(1176,)
Test set shape: X_test=(294, 20), y_test=(294,)
y_train distribution:
Attrition
0    0.838435
1    0.161565
Name: proportion, dtype: float64
y_test distribution:
Attrition
0    0.840136
1    0.159864
Name: proportion, dtype: float64
Training mlops model using XGBoost with RandomizedSearchCV (early stopping removed)...
Input y class distribution for RandomizedSearchCV:
Attrition
0    0.838435
1    0.161565
Name: proportion, dtype: float64
Fitting 3 folds for each of 100 candidates, totalling 300 fits...
Fitting 3 folds for each of 100 candidates, totalling 300 fits
Best parameters found for mlops model (RandomizedSearch): {'subsample': 0.7, 'reg_lambda': 3, 'reg_alpha': 0.5, 'n_estimators': 700, 'min_child_weight': 3, 'max_depth': 10, 'learning_rate': 0.05, 'gamma': 0.5, 'colsample_bytree': 0.8}
Best F1 score from RandomizedSearch: 0.4420

Model training completed in 17.25 seconds
Test Set Performance Metrics:
  Accuracy: 0.8673
  F1 Score: 0.4658
  Precision: 0.6538
  Recall: 0.3617
  ROC AUC: 0.8146
Saving object to results/experiment_1/baseline/ibm/artifacts/model.pkl...
Model saved to results/experiment_1/baseline/ibm/artifacts/model.pkl
Saving object to results/experiment_1/baseline/ibm/artifacts/model_metadata.pkl...
Model metadata saved to results/experiment_1/baseline/ibm/artifacts/model_metadata.pkl
--- Finished Step 4: Model Training ---
[CV] END colsample_bytree=1.0, gamma=0.5, learning_rate=0.15, max_depth=9, min_child_weight=7, n_estimators=700, reg_alpha=1, reg_lambda=3, subsample=0.9; total time=   0.5s
[CV] END colsample_bytree=0.9, gamma=0.1, learning_rate=0.2, max_depth=6, min_child_weight=4, n_estimators=500, reg_alpha=0, reg_lambda=2.5, subsample=0.9; total time=   0.3s
[CV] END colsample_bytree=1.0, gamma=0.05, learning_rate=0.2, max_depth=7, min_child_weight=1, n_estimators=600, reg_alpha=0, reg_lambda=3, subsample=0.6; total time=   0.6s
[CV] END colsample_bytree=0.9, gamma=0.3, learning_rate=0.2, max_depth=11, min_child_weight=3, n_estimators=800, reg_alpha=1, reg_lambda=2, subsample=0.9; total time=   0.7s
[CV] END colsample_bytree=0.7, gamma=0.2, learning_rate=0.15, max_depth=5, min_child_weight=1, n_estimators=400, reg_alpha=0.05, reg_lambda=1.5, subsample=1.0; total time=   0.3s
[CV] END colsample_bytree=0.9, gamma=0.15, learning_rate=0.01, max_depth=11, min_child_weight=4, n_estimators=300, reg_alpha=0.05, reg_lambda=2.5, subsample=0.6; total time=   0.3s
[CV] END colsample_bytree=0.6, gamma=0.4, learning_rate=0.01, max_depth=5, min_child_weight=5, n_estimators=800, reg_alpha=0, reg_lambda=2.5, subsample=0.6; total time=   0.5s
[CV] END colsample_bytree=0.6, gamma=0.5, learning_rate=0.1, max_depth=8, min_child_weight=7, n_estimators=400, reg_alpha=0.05, reg_lambda=1.5, subsample=0.8; total time=   0.2s
[CV] END colsample_bytree=0.7, gamma=0.2, learning_rate=0.01, max_depth=3, min_child_weight=4, n_estimators=300, reg_alpha=1, reg_lambda=2.5, subsample=0.7; total time=   0.2s
[CV] END colsample_bytree=0.6, gamma=0.05, learning_rate=0.15, max_depth=11, min_child_weight=4, n_estimators=600, reg_alpha=0.5, reg_lambda=2, subsample=0.8; total time=   0.4s
[CV] END colsample_bytree=0.7, gamma=0.2, learning_rate=0.2, max_depth=6, min_child_weight=1, n_estimators=200, reg_alpha=0, reg_lambda=3, subsample=0.9; total time=   0.2s
[CV] END colsample_bytree=1.0, gamma=0.4, learning_rate=0.01, max_depth=3, min_child_weight=4, n_estimators=800, reg_alpha=0.005, reg_lambda=1, subsample=1.0; total time=   0.4s
[CV] END colsample_bytree=0.6, gamma=0.5, learning_rate=0.01, max_depth=9, min_child_weight=2, n_estimators=700, reg_alpha=1, reg_lambda=2, subsample=0.7; total time=   0.6s
[CV] END colsample_bytree=0.8, gamma=0, learning_rate=0.15, max_depth=10, min_child_weight=2, n_estimators=600, reg_alpha=0.05, reg_lambda=2, subsample=0.9; total time=   0.5s
[CV] END colsample_bytree=1.0, gamma=0.05, learning_rate=0.15, max_depth=11, min_child_weight=5, n_estimators=700, reg_alpha=0.01, reg_lambda=2, subsample=0.7; total time=   0.6s
[CV] END colsample_bytree=0.8, gamma=0.25, learning_rate=0.2, max_depth=7, min_child_weight=3, n_estimators=500, reg_alpha=1, reg_lambda=2.5, subsample=0.6; total time=   0.4s
[CV] END colsample_bytree=1.0, gamma=0.15, learning_rate=0.1, max_depth=4, min_child_weight=2, n_estimators=100, reg_alpha=1, reg_lambda=1, subsample=0.6; total time=   0.1s
[CV] END colsample_bytree=0.9, gamma=0.5, learning_rate=0.1, max_depth=5, min_child_weight=5, n_estimators=500, reg_alpha=0.5, reg_lambda=0.5, subsample=0.7; total time=   0.4s
[CV] END colsample_bytree=1.0, gamma=0.5, learning_rate=0.2, max_depth=10, min_child_weight=5, n_estimators=500, reg_alpha=0.005, reg_lambda=2.5, subsample=0.9; total time=   0.4s
[CV] END colsample_bytree=1.0, gamma=0.15, learning_rate=0.05, max_depth=8, min_child_weight=7, n_estimators=400, reg_alpha=1, reg_lambda=2, subsample=0.9; total time=   0.4s
[CV] END colsample_bytree=0.9, gamma=0.3, learning_rate=0.01, max_depth=11, min_child_weight=4, n_estimators=500, reg_alpha=0.001, reg_lambda=1, subsample=1.0; total time=   0.7s
[CV] END colsample_bytree=0.7, gamma=0.3, learning_rate=0.2, max_depth=5, min_child_weight=2, n_estimators=800, reg_alpha=0.005, reg_lambda=1, subsample=0.7; total time=   0.6s
[CV] END colsample_bytree=0.9, gamma=0, learning_rate=0.15, max_depth=6, min_child_weight=1, n_estimators=500, reg_alpha=0.1, reg_lambda=0.1, subsample=1.0; total time=   0.5s
[CV] END colsample_bytree=0.7, gamma=0.4, learning_rate=0.01, max_depth=9, min_child_weight=4, n_estimators=800, reg_alpha=0, reg_lambda=0.5, subsample=0.7; total time=   0.7s
[CV] END colsample_bytree=0.8, gamma=0, learning_rate=0.01, max_depth=11, min_child_weight=6, n_estimators=800, reg_alpha=0, reg_lambda=2, subsample=0.6; total time=   0.6s
[CV] END colsample_bytree=0.8, gamma=0, learning_rate=0.15, max_depth=7, min_child_weight=1, n_estimators=200, reg_alpha=0.01, reg_lambda=1, subsample=0.8; total time=   0.2s
[CV] END colsample_bytree=0.6, gamma=0.25, learning_rate=0.2, max_depth=7, min_child_weight=1, n_estimators=100, reg_alpha=0.005, reg_lambda=2.5, subsample=1.0; total time=   0.1s
[CV] END colsample_bytree=1.0, gamma=0.1, learning_rate=0.01, max_depth=11, min_child_weight=1, n_estimators=400, reg_alpha=0.05, reg_lambda=1.5, subsample=1.0; total time=   0.7s
[CV] END colsample_bytree=0.8, gamma=0.05, learning_rate=0.2, max_depth=10, min_child_weight=5, n_estimators=600, reg_alpha=1, reg_lambda=1.5, subsample=0.7; total time=   0.4s
[CV] END colsample_bytree=0.9, gamma=0.2, learning_rate=0.15, max_depth=5, min_child_weight=4, n_estimators=100, reg_alpha=0.1, reg_lambda=2, subsample=0.6; total time=   0.1s
[CV] END colsample_bytree=0.6, gamma=0, learning_rate=0.05, max_depth=11, min_child_weight=3, n_estimators=300, reg_alpha=0.5, reg_lambda=2.5, subsample=0.7; total time=   0.3s
[CV] END colsample_bytree=1.0, gamma=0.1, learning_rate=0.15, max_depth=4, min_child_weight=5, n_estimators=200, reg_alpha=1, reg_lambda=0.1, subsample=1.0; total time=   0.1s
[CV] END colsample_bytree=0.9, gamma=0, learning_rate=0.01, max_depth=4, min_child_weight=5, n_estimators=300, reg_alpha=1, reg_lambda=0.5, subsample=0.7; total time=   0.3s
[CV] END colsample_bytree=0.9, gamma=0, learning_rate=0.1, max_depth=9, min_child_weight=4, n_estimators=600, reg_alpha=0.005, reg_lambda=1, subsample=0.7; total time=   0.5s
[CV] END colsample_bytree=0.8, gamma=0.2, learning_rate=0.2, max_depth=3, min_child_weight=4, n_estimators=100, reg_alpha=0.005, reg_lambda=0.5, subsample=0.9; total time=   0.1s
[CV] END colsample_bytree=0.8, gamma=0.2, learning_rate=0.2, max_depth=3, min_child_weight=4, n_estimators=100, reg_alpha=0.005, reg_lambda=0.5, subsample=0.9; total time=   0.1s
[CV] END colsample_bytree=0.9, gamma=0.3, learning_rate=0.01, max_depth=5, min_child_weight=6, n_estimators=200, reg_alpha=0.5, reg_lambda=0.1, subsample=0.6; total time=   0.2s
[CV] END colsample_bytree=1.0, gamma=0.1, learning_rate=0.01, max_depth=5, min_child_weight=7, n_estimators=400, reg_alpha=0.01, reg_lambda=2, subsample=0.8; total time=   0.3s
[CV] END colsample_bytree=0.6, gamma=0.15, learning_rate=0.01, max_depth=10, min_child_weight=4, n_estimators=500, reg_alpha=0.005, reg_lambda=1.5, subsample=1.0; total time=   0.5s
[CV] END colsample_bytree=1.0, gamma=0.05, learning_rate=0.05, max_depth=6, min_child_weight=3, n_estimators=800, reg_alpha=0.005, reg_lambda=2.5, subsample=0.9; total time=   0.8s
[CV] END colsample_bytree=1.0, gamma=0.5, learning_rate=0.2, max_depth=4, min_child_weight=3, n_estimators=600, reg_alpha=0.001, reg_lambda=0.5, subsample=0.9; total time=   0.4s
[CV] END colsample_bytree=0.9, gamma=0.15, learning_rate=0.01, max_depth=11, min_child_weight=4, n_estimators=300, reg_alpha=0.05, reg_lambda=2.5, subsample=0.6; total time=   0.3s
[CV] END colsample_bytree=0.7, gamma=0.05, learning_rate=0.1, max_depth=7, min_child_weight=2, n_estimators=600, reg_alpha=1, reg_lambda=0.5, subsample=0.8; total time=   0.5s
[CV] END colsample_bytree=0.6, gamma=0.3, learning_rate=0.1, max_depth=3, min_child_weight=3, n_estimators=400, reg_alpha=0.5, reg_lambda=0.1, subsample=0.9; total time=   0.2s
[CV] END colsample_bytree=0.6, gamma=0.5, learning_rate=0.1, max_depth=8, min_child_weight=7, n_estimators=400, reg_alpha=0.05, reg_lambda=1.5, subsample=0.8; total time=   0.2s
[CV] END colsample_bytree=0.6, gamma=0, learning_rate=0.01, max_depth=9, min_child_weight=5, n_estimators=200, reg_alpha=0.001, reg_lambda=0.1, subsample=0.6; total time=   0.2s
[CV] END colsample_bytree=1.0, gamma=0.5, learning_rate=0.2, max_depth=4, min_child_weight=7, n_estimators=800, reg_alpha=0.005, reg_lambda=2.5, subsample=1.0; total time=   0.5s
[CV] END colsample_bytree=0.6, gamma=0.5, learning_rate=0.01, max_depth=4, min_child_weight=2, n_estimators=800, reg_alpha=0.01, reg_lambda=0.1, subsample=1.0; total time=   0.4s
[CV] END colsample_bytree=0.7, gamma=0.2, learning_rate=0.01, max_depth=11, min_child_weight=4, n_estimators=300, reg_alpha=0.01, reg_lambda=2, subsample=0.9; total time=   0.3s
[CV] END colsample_bytree=0.7, gamma=0.3, learning_rate=0.01, max_depth=6, min_child_weight=6, n_estimators=100, reg_alpha=1, reg_lambda=0.5, subsample=0.6; total time=   0.1s
[CV] END colsample_bytree=1.0, gamma=0.2, learning_rate=0.15, max_depth=6, min_child_weight=1, n_estimators=700, reg_alpha=0.05, reg_lambda=1, subsample=0.9; total time=   0.7s
[CV] END colsample_bytree=1.0, gamma=0.3, learning_rate=0.1, max_depth=8, min_child_weight=6, n_estimators=500, reg_alpha=0.01, reg_lambda=0.5, subsample=0.7; total time=   0.4s
[CV] END colsample_bytree=0.7, gamma=0.5, learning_rate=0.2, max_depth=8, min_child_weight=5, n_estimators=600, reg_alpha=0.1, reg_lambda=2, subsample=0.8; total time=   0.3s
[CV] END colsample_bytree=0.8, gamma=0.5, learning_rate=0.1, max_depth=9, min_child_weight=5, n_estimators=300, reg_alpha=0.01, reg_lambda=2.5, subsample=0.6; total time=   0.2s
[CV] END colsample_bytree=1.0, gamma=0.15, learning_rate=0.01, max_depth=7, min_child_weight=1, n_estimators=400, reg_alpha=0.001, reg_lambda=1, subsample=0.7; total time=   0.6s
[CV] END colsample_bytree=1.0, gamma=0.5, learning_rate=0.2, max_depth=10, min_child_weight=5, n_estimators=500, reg_alpha=0.005, reg_lambda=2.5, subsample=0.9; total time=   0.4s
[CV] END colsample_bytree=1.0, gamma=0.15, learning_rate=0.05, max_depth=8, min_child_weight=7, n_estimators=400, reg_alpha=1, reg_lambda=2, subsample=0.9; total time=   0.4s
[CV] END colsample_bytree=0.8, gamma=0.15, learning_rate=0.15, max_depth=9, min_child_weight=5, n_estimators=800, reg_alpha=0.005, reg_lambda=2, subsample=0.7; total time=   0.5s
[CV] END colsample_bytree=0.6, gamma=0.2, learning_rate=0.15, max_depth=11, min_child_weight=7, n_estimators=300, reg_alpha=0.05, reg_lambda=1.5, subsample=0.8; total time=   0.2s
[CV] END colsample_bytree=0.6, gamma=0.1, learning_rate=0.01, max_depth=6, min_child_weight=4, n_estimators=300, reg_alpha=0.05, reg_lambda=2.5, subsample=1.0; total time=   0.3s
[CV] END colsample_bytree=0.8, gamma=0.5, learning_rate=0.05, max_depth=10, min_child_weight=3, n_estimators=700, reg_alpha=0.5, reg_lambda=3, subsample=0.7; total time=   0.7s
[CV] END colsample_bytree=0.7, gamma=0.4, learning_rate=0.01, max_depth=9, min_child_weight=4, n_estimators=800, reg_alpha=0, reg_lambda=0.5, subsample=0.7; total time=   0.7s
[CV] END colsample_bytree=0.8, gamma=0, learning_rate=0.01, max_depth=11, min_child_weight=6, n_estimators=800, reg_alpha=0, reg_lambda=2, subsample=0.6; total time=   0.6s
[CV] END colsample_bytree=0.8, gamma=0, learning_rate=0.15, max_depth=7, min_child_weight=1, n_estimators=200, reg_alpha=0.01, reg_lambda=1, subsample=0.8; total time=   0.2s
[CV] END colsample_bytree=0.6, gamma=0.25, learning_rate=0.2, max_depth=7, min_child_weight=1, n_estimators=100, reg_alpha=0.005, reg_lambda=2.5, subsample=1.0; total time=   0.1s
[CV] END colsample_bytree=1.0, gamma=0.1, learning_rate=0.01, max_depth=11, min_child_weight=1, n_estimators=400, reg_alpha=0.05, reg_lambda=1.5, subsample=1.0; total time=   0.8s
[CV] END colsample_bytree=0.8, gamma=0.05, learning_rate=0.2, max_depth=10, min_child_weight=5, n_estimators=600, reg_alpha=1, reg_lambda=1.5, subsample=0.7; total time=   0.4s
[CV] END colsample_bytree=0.9, gamma=0.2, learning_rate=0.1, max_depth=5, min_child_weight=3, n_estimators=100, reg_alpha=1, reg_lambda=0.1, subsample=0.6; total time=   0.1s
[CV] END colsample_bytree=0.6, gamma=0.25, learning_rate=0.01, max_depth=6, min_child_weight=5, n_estimators=300, reg_alpha=0.05, reg_lambda=0.1, subsample=0.8; total time=   0.3s
[CV] END colsample_bytree=0.7, gamma=0.05, learning_rate=0.05, max_depth=8, min_child_weight=3, n_estimators=500, reg_alpha=1, reg_lambda=0.1, subsample=1.0; total time=   0.5s
[CV] END colsample_bytree=0.8, gamma=0.4, learning_rate=0.1, max_depth=11, min_child_weight=1, n_estimators=500, reg_alpha=0.05, reg_lambda=1.5, subsample=0.8; total time=   0.6s
[CV] END colsample_bytree=0.8, gamma=0.2, learning_rate=0.2, max_depth=3, min_child_weight=4, n_estimators=100, reg_alpha=0.005, reg_lambda=0.5, subsample=0.9; total time=   0.1s
[CV] END colsample_bytree=0.9, gamma=0.3, learning_rate=0.01, max_depth=5, min_child_weight=6, n_estimators=200, reg_alpha=0.5, reg_lambda=0.1, subsample=0.6; total time=   0.2s
[CV] END colsample_bytree=1.0, gamma=0.1, learning_rate=0.01, max_depth=5, min_child_weight=7, n_estimators=400, reg_alpha=0.01, reg_lambda=2, subsample=0.8; total time=   0.4s
[CV] END colsample_bytree=1.0, gamma=0.05, learning_rate=0.2, max_depth=7, min_child_weight=1, n_estimators=600, reg_alpha=0, reg_lambda=3, subsample=0.6; total time=   0.5s
[CV] END colsample_bytree=1.0, gamma=0.25, learning_rate=0.05, max_depth=11, min_child_weight=7, n_estimators=400, reg_alpha=1, reg_lambda=2.5, subsample=0.7; total time=   0.3s
[CV] END colsample_bytree=1.0, gamma=0.5, learning_rate=0.2, max_depth=4, min_child_weight=3, n_estimators=600, reg_alpha=0.001, reg_lambda=0.5, subsample=0.9; total time=   0.4s
[CV] END colsample_bytree=0.7, gamma=0.2, learning_rate=0.15, max_depth=5, min_child_weight=1, n_estimators=400, reg_alpha=0.05, reg_lambda=1.5, subsample=1.0; total time=   0.3s
[CV] END colsample_bytree=0.7, gamma=0.25, learning_rate=0.2, max_depth=8, min_child_weight=3, n_estimators=400, reg_alpha=1, reg_lambda=0.5, subsample=0.6; total time=   0.2s
[CV] END colsample_bytree=0.7, gamma=0.05, learning_rate=0.1, max_depth=7, min_child_weight=2, n_estimators=600, reg_alpha=1, reg_lambda=0.5, subsample=0.8; total time=   0.5s
[CV] END colsample_bytree=0.8, gamma=0.5, learning_rate=0.05, max_depth=6, min_child_weight=5, n_estimators=500, reg_alpha=1, reg_lambda=2, subsample=0.8; total time=   0.4s
[CV] END colsample_bytree=0.6, gamma=0, learning_rate=0.01, max_depth=9, min_child_weight=5, n_estimators=200, reg_alpha=0.001, reg_lambda=0.1, subsample=0.6; total time=   0.2s
[CV] END colsample_bytree=0.6, gamma=0.05, learning_rate=0.15, max_depth=11, min_child_weight=4, n_estimators=600, reg_alpha=0.5, reg_lambda=2, subsample=0.8; total time=   0.3s
[CV] END colsample_bytree=1.0, gamma=0.5, learning_rate=0.2, max_depth=4, min_child_weight=7, n_estimators=800, reg_alpha=0.005, reg_lambda=2.5, subsample=1.0; total time=   0.5s
[CV] END colsample_bytree=0.7, gamma=0.2, learning_rate=0.15, max_depth=9, min_child_weight=3, n_estimators=500, reg_alpha=0.01, reg_lambda=3, subsample=1.0; total time=   0.4s
[CV] END colsample_bytree=0.6, gamma=0.5, learning_rate=0.15, max_depth=5, min_child_weight=7, n_estimators=300, reg_alpha=1, reg_lambda=2.5, subsample=0.6; total time=   0.1s
[CV] END colsample_bytree=1.0, gamma=0.2, learning_rate=0.15, max_depth=6, min_child_weight=1, n_estimators=700, reg_alpha=0.05, reg_lambda=1, subsample=0.9; total time=   0.8s
[CV] END colsample_bytree=1.0, gamma=0.05, learning_rate=0.15, max_depth=11, min_child_weight=5, n_estimators=700, reg_alpha=0.01, reg_lambda=2, subsample=0.7; total time=   0.6s
[CV] END colsample_bytree=0.6, gamma=0.4, learning_rate=0.05, max_depth=7, min_child_weight=3, n_estimators=100, reg_alpha=0.001, reg_lambda=2.5, subsample=0.7; total time=   0.1s
[CV] END colsample_bytree=1.0, gamma=0.15, learning_rate=0.01, max_depth=7, min_child_weight=1, n_estimators=400, reg_alpha=0.001, reg_lambda=1, subsample=0.7; total time=   0.6s
[CV] END colsample_bytree=1.0, gamma=0.5, learning_rate=0.2, max_depth=10, min_child_weight=5, n_estimators=500, reg_alpha=0.005, reg_lambda=2.5, subsample=0.9; total time=   0.5s
[CV] END colsample_bytree=0.6, gamma=0.15, learning_rate=0.15, max_depth=10, min_child_weight=6, n_estimators=700, reg_alpha=1, reg_lambda=0.1, subsample=0.7; total time=   0.4s
[CV] END colsample_bytree=0.9, gamma=0.3, learning_rate=0.01, max_depth=11, min_child_weight=4, n_estimators=500, reg_alpha=0.001, reg_lambda=1, subsample=1.0; total time=   0.6s
[CV] END colsample_bytree=0.8, gamma=0.2, learning_rate=0.1, max_depth=11, min_child_weight=2, n_estimators=300, reg_alpha=0, reg_lambda=0.1, subsample=0.7; total time=   0.3s
[CV] END colsample_bytree=0.6, gamma=0.1, learning_rate=0.01, max_depth=6, min_child_weight=4, n_estimators=300, reg_alpha=0.05, reg_lambda=2.5, subsample=1.0; total time=   0.3s
[CV] END colsample_bytree=0.8, gamma=0.5, learning_rate=0.05, max_depth=10, min_child_weight=3, n_estimators=700, reg_alpha=0.5, reg_lambda=3, subsample=0.7; total time=   0.7s
[CV] END colsample_bytree=0.8, gamma=0.15, learning_rate=0.15, max_depth=10, min_child_weight=4, n_estimators=600, reg_alpha=0.001, reg_lambda=3, subsample=0.8; total time=   0.4s
[CV] END colsample_bytree=0.6, gamma=0.15, learning_rate=0.15, max_depth=11, min_child_weight=2, n_estimators=800, reg_alpha=0.1, reg_lambda=2, subsample=0.6; total time=   0.5s
[CV] END colsample_bytree=0.8, gamma=0.05, learning_rate=0.01, max_depth=7, min_child_weight=5, n_estimators=700, reg_alpha=0.005, reg_lambda=2, subsample=1.0; total time=   0.7s
[CV] END colsample_bytree=0.9, gamma=0.25, learning_rate=0.15, max_depth=4, min_child_weight=4, n_estimators=800, reg_alpha=0.05, reg_lambda=1.5, subsample=0.6; total time=   0.5s
[CV] END colsample_bytree=0.8, gamma=0.05, learning_rate=0.2, max_depth=10, min_child_weight=5, n_estimators=600, reg_alpha=1, reg_lambda=1.5, subsample=0.7; total time=   0.4s
[CV] END colsample_bytree=0.9, gamma=0.1, learning_rate=0.05, max_depth=8, min_child_weight=3, n_estimators=400, reg_alpha=0.05, reg_lambda=3, subsample=0.9; total time=   0.5s
[CV] END colsample_bytree=1.0, gamma=0.1, learning_rate=0.15, max_depth=4, min_child_weight=5, n_estimators=200, reg_alpha=1, reg_lambda=0.1, subsample=1.0; total time=   0.2s
[CV] END colsample_bytree=0.9, gamma=0, learning_rate=0.01, max_depth=4, min_child_weight=5, n_estimators=300, reg_alpha=1, reg_lambda=0.5, subsample=0.7; total time=   0.2s
[CV] END colsample_bytree=0.9, gamma=0, learning_rate=0.1, max_depth=9, min_child_weight=4, n_estimators=600, reg_alpha=0.005, reg_lambda=1, subsample=0.7; total time=   0.5s
[CV] END colsample_bytree=0.9, gamma=0.1, learning_rate=0.01, max_depth=8, min_child_weight=3, n_estimators=500, reg_alpha=0.01, reg_lambda=2.5, subsample=0.7; total time=   0.5s
[CV] END colsample_bytree=1.0, gamma=0.5, learning_rate=0.15, max_depth=9, min_child_weight=7, n_estimators=700, reg_alpha=1, reg_lambda=3, subsample=0.9; total time=   0.5s
[CV] END colsample_bytree=0.8, gamma=0, learning_rate=0.2, max_depth=6, min_child_weight=2, n_estimators=200, reg_alpha=1, reg_lambda=0.5, subsample=0.8; total time=   0.2s
[CV] END colsample_bytree=0.6, gamma=0.15, learning_rate=0.01, max_depth=10, min_child_weight=4, n_estimators=500, reg_alpha=0.005, reg_lambda=1.5, subsample=1.0; total time=   0.5s
[CV] END colsample_bytree=0.8, gamma=0.1, learning_rate=0.15, max_depth=6, min_child_weight=2, n_estimators=600, reg_alpha=0.05, reg_lambda=0.5, subsample=0.7; total time=   0.4s
[CV] END colsample_bytree=0.9, gamma=0.3, learning_rate=0.2, max_depth=11, min_child_weight=3, n_estimators=800, reg_alpha=1, reg_lambda=2, subsample=0.9; total time=   0.7s
[CV] END colsample_bytree=0.7, gamma=0.25, learning_rate=0.2, max_depth=8, min_child_weight=3, n_estimators=400, reg_alpha=1, reg_lambda=0.5, subsample=0.6; total time=   0.2s
[CV] END colsample_bytree=0.9, gamma=0.15, learning_rate=0.01, max_depth=11, min_child_weight=4, n_estimators=300, reg_alpha=0.05, reg_lambda=2.5, subsample=0.6; total time=   0.3s
[CV] END colsample_bytree=0.8, gamma=0.05, learning_rate=0.15, max_depth=10, min_child_weight=7, n_estimators=200, reg_alpha=0.01, reg_lambda=2, subsample=0.8; total time=   0.1s
[CV] END colsample_bytree=0.8, gamma=0.05, learning_rate=0.15, max_depth=10, min_child_weight=7, n_estimators=200, reg_alpha=0.01, reg_lambda=2, subsample=0.8; total time=   0.2s
[CV] END colsample_bytree=0.6, gamma=0.3, learning_rate=0.1, max_depth=3, min_child_weight=3, n_estimators=400, reg_alpha=0.5, reg_lambda=0.1, subsample=0.9; total time=   0.2s
[CV] END colsample_bytree=0.6, gamma=0.2, learning_rate=0.15, max_depth=9, min_child_weight=3, n_estimators=200, reg_alpha=0.05, reg_lambda=2.5, subsample=1.0; total time=   0.2s
[CV] END colsample_bytree=0.7, gamma=0.2, learning_rate=0.01, max_depth=3, min_child_weight=4, n_estimators=300, reg_alpha=1, reg_lambda=2.5, subsample=0.7; total time=   0.1s
[CV] END colsample_bytree=0.6, gamma=0.05, learning_rate=0.15, max_depth=11, min_child_weight=4, n_estimators=600, reg_alpha=0.5, reg_lambda=2, subsample=0.8; total time=   0.4s
[CV] END colsample_bytree=0.7, gamma=0.2, learning_rate=0.2, max_depth=6, min_child_weight=1, n_estimators=200, reg_alpha=0, reg_lambda=3, subsample=0.9; total time=   0.2s
[CV] END colsample_bytree=1.0, gamma=0.4, learning_rate=0.01, max_depth=3, min_child_weight=4, n_estimators=800, reg_alpha=0.005, reg_lambda=1, subsample=1.0; total time=   0.5s
[CV] END colsample_bytree=0.6, gamma=0.5, learning_rate=0.01, max_depth=9, min_child_weight=2, n_estimators=700, reg_alpha=1, reg_lambda=2, subsample=0.7; total time=   0.6s
[CV] END colsample_bytree=0.9, gamma=0.15, learning_rate=0.1, max_depth=6, min_child_weight=1, n_estimators=500, reg_alpha=0.05, reg_lambda=1.5, subsample=0.6; total time=   0.5s
[CV] END colsample_bytree=1.0, gamma=0.05, learning_rate=0.15, max_depth=11, min_child_weight=5, n_estimators=700, reg_alpha=0.01, reg_lambda=2, subsample=0.7; total time=   0.5s
[CV] END colsample_bytree=0.6, gamma=0.4, learning_rate=0.05, max_depth=7, min_child_weight=3, n_estimators=100, reg_alpha=0.001, reg_lambda=2.5, subsample=0.7; total time=   0.1s
[CV] END colsample_bytree=1.0, gamma=0.15, learning_rate=0.01, max_depth=7, min_child_weight=1, n_estimators=400, reg_alpha=0.001, reg_lambda=1, subsample=0.7; total time=   0.6s
[CV] END colsample_bytree=0.9, gamma=0.5, learning_rate=0.1, max_depth=5, min_child_weight=5, n_estimators=500, reg_alpha=0.5, reg_lambda=0.5, subsample=0.7; total time=   0.4s
[CV] END colsample_bytree=0.6, gamma=0.15, learning_rate=0.15, max_depth=10, min_child_weight=6, n_estimators=700, reg_alpha=1, reg_lambda=0.1, subsample=0.7; total time=   0.4s
[CV] END colsample_bytree=0.9, gamma=0.2, learning_rate=0.1, max_depth=10, min_child_weight=6, n_estimators=100, reg_alpha=0.01, reg_lambda=3, subsample=0.7; total time=   0.1s
[CV] END colsample_bytree=0.7, gamma=0.3, learning_rate=0.1, max_depth=8, min_child_weight=7, n_estimators=400, reg_alpha=0.005, reg_lambda=2, subsample=1.0; total time=   0.3s
[CV] END colsample_bytree=0.9, gamma=0.05, learning_rate=0.15, max_depth=3, min_child_weight=7, n_estimators=200, reg_alpha=0, reg_lambda=0.1, subsample=0.6; total time=   0.1s
[CV] END colsample_bytree=0.9, gamma=0.05, learning_rate=0.1, max_depth=10, min_child_weight=7, n_estimators=300, reg_alpha=0.005, reg_lambda=0.5, subsample=0.6; total time=   0.2s
[CV] END colsample_bytree=0.9, gamma=0.05, learning_rate=0.1, max_depth=10, min_child_weight=7, n_estimators=300, reg_alpha=0.005, reg_lambda=0.5, subsample=0.6; total time=   0.2s
[CV] END colsample_bytree=0.7, gamma=0.3, learning_rate=0.2, max_depth=5, min_child_weight=2, n_estimators=800, reg_alpha=0.005, reg_lambda=1, subsample=0.7; total time=   0.5s
[CV] END colsample_bytree=0.9, gamma=0, learning_rate=0.15, max_depth=6, min_child_weight=1, n_estimators=500, reg_alpha=0.1, reg_lambda=0.1, subsample=1.0; total time=   0.4s
[CV] END colsample_bytree=1.0, gamma=0.2, learning_rate=0.1, max_depth=6, min_child_weight=5, n_estimators=500, reg_alpha=0.1, reg_lambda=1, subsample=0.8; total time=   0.4s
[CV] END colsample_bytree=0.9, gamma=0.1, learning_rate=0.1, max_depth=8, min_child_weight=5, n_estimators=700, reg_alpha=0.001, reg_lambda=1.5, subsample=1.0; total time=   0.5s
[CV] END colsample_bytree=0.9, gamma=0.15, learning_rate=0.2, max_depth=5, min_child_weight=6, n_estimators=100, reg_alpha=0.005, reg_lambda=0.1, subsample=0.7; total time=   0.1s
[CV] END colsample_bytree=0.8, gamma=0.05, learning_rate=0.01, max_depth=7, min_child_weight=5, n_estimators=700, reg_alpha=0.005, reg_lambda=2, subsample=1.0; total time=   0.7s
[CV] END colsample_bytree=1.0, gamma=0.1, learning_rate=0.01, max_depth=11, min_child_weight=1, n_estimators=400, reg_alpha=0.05, reg_lambda=1.5, subsample=1.0; total time=   0.7s
[CV] END colsample_bytree=0.9, gamma=0, learning_rate=0.01, max_depth=5, min_child_weight=1, n_estimators=100, reg_alpha=0.001, reg_lambda=3, subsample=1.0; total time=   0.1s
[CV] END colsample_bytree=0.9, gamma=0, learning_rate=0.01, max_depth=5, min_child_weight=1, n_estimators=100, reg_alpha=0.001, reg_lambda=3, subsample=1.0; total time=   0.1s
[CV] END colsample_bytree=0.9, gamma=0, learning_rate=0.01, max_depth=5, min_child_weight=1, n_estimators=100, reg_alpha=0.001, reg_lambda=3, subsample=1.0; total time=   0.1s
[CV] END colsample_bytree=0.9, gamma=0.1, learning_rate=0.05, max_depth=8, min_child_weight=3, n_estimators=400, reg_alpha=0.05, reg_lambda=3, subsample=0.9; total time=   0.4s
[CV] END colsample_bytree=0.7, gamma=0.05, learning_rate=0.05, max_depth=8, min_child_weight=3, n_estimators=500, reg_alpha=1, reg_lambda=0.1, subsample=1.0; total time=   0.5s
[CV] END colsample_bytree=0.8, gamma=0.4, learning_rate=0.1, max_depth=11, min_child_weight=1, n_estimators=500, reg_alpha=0.05, reg_lambda=1.5, subsample=0.8; total time=   0.6s
[CV] END colsample_bytree=0.9, gamma=0.25, learning_rate=0.2, max_depth=6, min_child_weight=5, n_estimators=400, reg_alpha=0.005, reg_lambda=1, subsample=1.0; total time=   0.3s
[CV] END colsample_bytree=0.9, gamma=0.1, learning_rate=0.2, max_depth=6, min_child_weight=4, n_estimators=500, reg_alpha=0, reg_lambda=2.5, subsample=0.9; total time=   0.4s
[CV] END colsample_bytree=1.0, gamma=0.05, learning_rate=0.2, max_depth=7, min_child_weight=1, n_estimators=600, reg_alpha=0, reg_lambda=3, subsample=0.6; total time=   0.6s
[CV] END colsample_bytree=1.0, gamma=0.25, learning_rate=0.05, max_depth=11, min_child_weight=7, n_estimators=400, reg_alpha=1, reg_lambda=2.5, subsample=0.7; total time=   0.3s
[CV] END colsample_bytree=1.0, gamma=0.5, learning_rate=0.2, max_depth=4, min_child_weight=3, n_estimators=600, reg_alpha=0.001, reg_lambda=0.5, subsample=0.9; total time=   0.4s
[CV] END colsample_bytree=0.9, gamma=0.15, learning_rate=0.01, max_depth=8, min_child_weight=2, n_estimators=400, reg_alpha=0.1, reg_lambda=3, subsample=0.8; total time=   0.5s
[CV] END colsample_bytree=0.6, gamma=0.4, learning_rate=0.01, max_depth=5, min_child_weight=5, n_estimators=800, reg_alpha=0, reg_lambda=2.5, subsample=0.6; total time=   0.5s
[CV] END colsample_bytree=0.6, gamma=0.3, learning_rate=0.1, max_depth=3, min_child_weight=3, n_estimators=400, reg_alpha=0.5, reg_lambda=0.1, subsample=0.9; total time=   0.2s
[CV] END colsample_bytree=0.6, gamma=0.2, learning_rate=0.15, max_depth=9, min_child_weight=3, n_estimators=200, reg_alpha=0.05, reg_lambda=2.5, subsample=1.0; total time=   0.2s
[CV] END colsample_bytree=0.6, gamma=0, learning_rate=0.01, max_depth=9, min_child_weight=5, n_estimators=200, reg_alpha=0.001, reg_lambda=0.1, subsample=0.6; total time=   0.2s
[CV] END colsample_bytree=1.0, gamma=0.5, learning_rate=0.2, max_depth=4, min_child_weight=7, n_estimators=800, reg_alpha=0.005, reg_lambda=2.5, subsample=1.0; total time=   0.5s
[CV] END colsample_bytree=1.0, gamma=0.4, learning_rate=0.01, max_depth=3, min_child_weight=4, n_estimators=800, reg_alpha=0.005, reg_lambda=1, subsample=1.0; total time=   0.4s
[CV] END colsample_bytree=0.7, gamma=0.2, learning_rate=0.01, max_depth=11, min_child_weight=4, n_estimators=300, reg_alpha=0.01, reg_lambda=2, subsample=0.9; total time=   0.3s
[CV] END colsample_bytree=0.6, gamma=0.5, learning_rate=0.15, max_depth=5, min_child_weight=7, n_estimators=300, reg_alpha=1, reg_lambda=2.5, subsample=0.6; total time=   0.1s
[CV] END colsample_bytree=0.8, gamma=0, learning_rate=0.15, max_depth=10, min_child_weight=2, n_estimators=600, reg_alpha=0.05, reg_lambda=2, subsample=0.9; total time=   0.5s
[CV] END colsample_bytree=1.0, gamma=0.3, learning_rate=0.1, max_depth=8, min_child_weight=6, n_estimators=500, reg_alpha=0.01, reg_lambda=0.5, subsample=0.7; total time=   0.4s
[CV] END colsample_bytree=0.7, gamma=0.5, learning_rate=0.2, max_depth=8, min_child_weight=5, n_estimators=600, reg_alpha=0.1, reg_lambda=2, subsample=0.8; total time=   0.4s
[CV] END colsample_bytree=0.8, gamma=0.5, learning_rate=0.1, max_depth=9, min_child_weight=5, n_estimators=300, reg_alpha=0.01, reg_lambda=2.5, subsample=0.6; total time=   0.2s
[CV] END colsample_bytree=1.0, gamma=0.2, learning_rate=0.1, max_depth=11, min_child_weight=4, n_estimators=800, reg_alpha=0.01, reg_lambda=3, subsample=1.0; total time=   0.9s
[CV] END colsample_bytree=0.6, gamma=0.15, learning_rate=0.15, max_depth=10, min_child_weight=6, n_estimators=700, reg_alpha=1, reg_lambda=0.1, subsample=0.7; total time=   0.4s
[CV] END colsample_bytree=0.9, gamma=0.3, learning_rate=0.01, max_depth=11, min_child_weight=4, n_estimators=500, reg_alpha=0.001, reg_lambda=1, subsample=1.0; total time=   0.6s
[CV] END colsample_bytree=0.6, gamma=0.2, learning_rate=0.15, max_depth=11, min_child_weight=7, n_estimators=300, reg_alpha=0.05, reg_lambda=1.5, subsample=0.8; total time=   0.2s
[CV] END colsample_bytree=0.7, gamma=0.3, learning_rate=0.2, max_depth=5, min_child_weight=2, n_estimators=800, reg_alpha=0.005, reg_lambda=1, subsample=0.7; total time=   0.5s
[CV] END colsample_bytree=1.0, gamma=0.2, learning_rate=0.1, max_depth=6, min_child_weight=5, n_estimators=500, reg_alpha=0.1, reg_lambda=1, subsample=0.8; total time=   0.4s
[CV] END colsample_bytree=0.7, gamma=0.4, learning_rate=0.01, max_depth=9, min_child_weight=4, n_estimators=800, reg_alpha=0, reg_lambda=0.5, subsample=0.7; total time=   0.7s
[CV] END colsample_bytree=0.6, gamma=0.15, learning_rate=0.15, max_depth=11, min_child_weight=2, n_estimators=800, reg_alpha=0.1, reg_lambda=2, subsample=0.6; total time=   0.5s
[CV] END colsample_bytree=0.7, gamma=0, learning_rate=0.01, max_depth=6, min_child_weight=1, n_estimators=200, reg_alpha=1, reg_lambda=2, subsample=0.7; total time=   0.2s
[CV] END colsample_bytree=0.6, gamma=0.1, learning_rate=0.15, max_depth=5, min_child_weight=3, n_estimators=200, reg_alpha=1, reg_lambda=0.1, subsample=0.9; total time=   0.1s
[CV] END colsample_bytree=0.6, gamma=0.1, learning_rate=0.15, max_depth=5, min_child_weight=3, n_estimators=200, reg_alpha=1, reg_lambda=0.1, subsample=0.9; total time=   0.1s
[CV] END colsample_bytree=0.7, gamma=0.3, learning_rate=0.1, max_depth=8, min_child_weight=1, n_estimators=600, reg_alpha=0.001, reg_lambda=2, subsample=0.8; total time=   0.5s
[CV] END colsample_bytree=1.0, gamma=0.3, learning_rate=0.15, max_depth=9, min_child_weight=6, n_estimators=800, reg_alpha=0.5, reg_lambda=0.5, subsample=0.8; total time=   0.6s
[CV] END colsample_bytree=0.9, gamma=0.2, learning_rate=0.15, max_depth=5, min_child_weight=4, n_estimators=100, reg_alpha=0.1, reg_lambda=2, subsample=0.6; total time=   0.1s
[CV] END colsample_bytree=0.6, gamma=0, learning_rate=0.05, max_depth=11, min_child_weight=3, n_estimators=300, reg_alpha=0.5, reg_lambda=2.5, subsample=0.7; total time=   0.2s
[CV] END colsample_bytree=0.6, gamma=0.25, learning_rate=0.01, max_depth=6, min_child_weight=5, n_estimators=300, reg_alpha=0.05, reg_lambda=0.1, subsample=0.8; total time=   0.3s
[CV] END colsample_bytree=0.7, gamma=0.15, learning_rate=0.01, max_depth=10, min_child_weight=4, n_estimators=700, reg_alpha=0, reg_lambda=1.5, subsample=0.8; total time=   0.7s
[CV] END colsample_bytree=0.9, gamma=0.1, learning_rate=0.01, max_depth=8, min_child_weight=3, n_estimators=500, reg_alpha=0.01, reg_lambda=2.5, subsample=0.7; total time=   0.5s
[CV] END colsample_bytree=1.0, gamma=0.5, learning_rate=0.15, max_depth=9, min_child_weight=7, n_estimators=700, reg_alpha=1, reg_lambda=3, subsample=0.9; total time=   0.6s
[CV] END colsample_bytree=0.8, gamma=0, learning_rate=0.2, max_depth=6, min_child_weight=2, n_estimators=200, reg_alpha=1, reg_lambda=0.5, subsample=0.8; total time=   0.2s
[CV] END colsample_bytree=0.6, gamma=0.15, learning_rate=0.01, max_depth=10, min_child_weight=4, n_estimators=500, reg_alpha=0.005, reg_lambda=1.5, subsample=1.0; total time=   0.5s
[CV] END colsample_bytree=1.0, gamma=0.05, learning_rate=0.05, max_depth=6, min_child_weight=3, n_estimators=800, reg_alpha=0.005, reg_lambda=2.5, subsample=0.9; total time=   0.8s
[CV] END colsample_bytree=0.7, gamma=0.2, learning_rate=0.15, max_depth=5, min_child_weight=1, n_estimators=400, reg_alpha=0.05, reg_lambda=1.5, subsample=1.0; total time=   0.3s
[CV] END colsample_bytree=0.9, gamma=0.15, learning_rate=0.01, max_depth=8, min_child_weight=2, n_estimators=400, reg_alpha=0.1, reg_lambda=3, subsample=0.8; total time=   0.6s
[CV] END colsample_bytree=0.8, gamma=0.05, learning_rate=0.15, max_depth=10, min_child_weight=7, n_estimators=200, reg_alpha=0.01, reg_lambda=2, subsample=0.8; total time=   0.1s
[CV] END colsample_bytree=0.8, gamma=0.5, learning_rate=0.05, max_depth=6, min_child_weight=5, n_estimators=500, reg_alpha=1, reg_lambda=2, subsample=0.8; total time=   0.4s
[CV] END colsample_bytree=0.6, gamma=0.2, learning_rate=0.15, max_depth=9, min_child_weight=3, n_estimators=200, reg_alpha=0.05, reg_lambda=2.5, subsample=1.0; total time=   0.2s
[CV] END colsample_bytree=0.8, gamma=0.2, learning_rate=0.15, max_depth=4, min_child_weight=1, n_estimators=800, reg_alpha=0.5, reg_lambda=2.5, subsample=0.7; total time=   0.6s
[CV] END colsample_bytree=0.6, gamma=0.5, learning_rate=0.01, max_depth=4, min_child_weight=2, n_estimators=800, reg_alpha=0.01, reg_lambda=0.1, subsample=1.0; total time=   0.4s
[CV] END colsample_bytree=0.7, gamma=0.2, learning_rate=0.15, max_depth=9, min_child_weight=3, n_estimators=500, reg_alpha=0.01, reg_lambda=3, subsample=1.0; total time=   0.4s
[CV] END colsample_bytree=0.7, gamma=0.3, learning_rate=0.01, max_depth=6, min_child_weight=6, n_estimators=100, reg_alpha=1, reg_lambda=0.5, subsample=0.6; total time=   0.1s
[CV] END colsample_bytree=1.0, gamma=0.2, learning_rate=0.15, max_depth=6, min_child_weight=1, n_estimators=700, reg_alpha=0.05, reg_lambda=1, subsample=0.9; total time=   0.7s
[CV] END colsample_bytree=1.0, gamma=0.3, learning_rate=0.1, max_depth=8, min_child_weight=6, n_estimators=500, reg_alpha=0.01, reg_lambda=0.5, subsample=0.7; total time=   0.4s
[CV] END colsample_bytree=0.9, gamma=0.05, learning_rate=0.1, max_depth=3, min_child_weight=7, n_estimators=200, reg_alpha=0.05, reg_lambda=2.5, subsample=0.6; total time=   0.1s
[CV] END colsample_bytree=0.8, gamma=0.25, learning_rate=0.2, max_depth=7, min_child_weight=3, n_estimators=500, reg_alpha=1, reg_lambda=2.5, subsample=0.6; total time=   0.4s
[CV] END colsample_bytree=1.0, gamma=0.2, learning_rate=0.1, max_depth=11, min_child_weight=4, n_estimators=800, reg_alpha=0.01, reg_lambda=3, subsample=1.0; total time=   0.7s
[CV] END colsample_bytree=1.0, gamma=0, learning_rate=0.1, max_depth=3, min_child_weight=5, n_estimators=500, reg_alpha=0.005, reg_lambda=1, subsample=0.8; total time=   0.3s
[CV] END colsample_bytree=1.0, gamma=0.15, learning_rate=0.05, max_depth=8, min_child_weight=7, n_estimators=400, reg_alpha=1, reg_lambda=2, subsample=0.9; total time=   0.4s
[CV] END colsample_bytree=0.8, gamma=0.15, learning_rate=0.15, max_depth=9, min_child_weight=5, n_estimators=800, reg_alpha=0.005, reg_lambda=2, subsample=0.7; total time=   0.5s
[CV] END colsample_bytree=0.6, gamma=0.2, learning_rate=0.15, max_depth=11, min_child_weight=7, n_estimators=300, reg_alpha=0.05, reg_lambda=1.5, subsample=0.8; total time=   0.2s
[CV] END colsample_bytree=0.6, gamma=0.1, learning_rate=0.01, max_depth=6, min_child_weight=4, n_estimators=300, reg_alpha=0.05, reg_lambda=2.5, subsample=1.0; total time=   0.2s
[CV] END colsample_bytree=0.8, gamma=0.25, learning_rate=0.2, max_depth=6, min_child_weight=3, n_estimators=300, reg_alpha=0, reg_lambda=0.1, subsample=1.0; total time=   0.3s
[CV] END colsample_bytree=1.0, gamma=0.2, learning_rate=0.1, max_depth=6, min_child_weight=5, n_estimators=500, reg_alpha=0.1, reg_lambda=1, subsample=0.8; total time=   0.5s
[CV] END colsample_bytree=0.8, gamma=0.15, learning_rate=0.15, max_depth=10, min_child_weight=4, n_estimators=600, reg_alpha=0.001, reg_lambda=3, subsample=0.8; total time=   0.4s
[CV] END colsample_bytree=0.9, gamma=0.1, learning_rate=0.1, max_depth=8, min_child_weight=5, n_estimators=700, reg_alpha=0.001, reg_lambda=1.5, subsample=1.0; total time=   0.5s
[CV] END colsample_bytree=0.9, gamma=0.15, learning_rate=0.2, max_depth=5, min_child_weight=6, n_estimators=100, reg_alpha=0.005, reg_lambda=0.1, subsample=0.7; total time=   0.1s
[CV] END colsample_bytree=0.7, gamma=0, learning_rate=0.01, max_depth=6, min_child_weight=1, n_estimators=200, reg_alpha=1, reg_lambda=2, subsample=0.7; total time=   0.2s
[CV] END colsample_bytree=0.7, gamma=0, learning_rate=0.01, max_depth=6, min_child_weight=1, n_estimators=200, reg_alpha=1, reg_lambda=2, subsample=0.7; total time=   0.2s
[CV] END colsample_bytree=0.6, gamma=0.1, learning_rate=0.15, max_depth=5, min_child_weight=3, n_estimators=200, reg_alpha=1, reg_lambda=0.1, subsample=0.9; total time=   0.1s
[CV] END colsample_bytree=0.7, gamma=0.3, learning_rate=0.1, max_depth=8, min_child_weight=1, n_estimators=600, reg_alpha=0.001, reg_lambda=2, subsample=0.8; total time=   0.6s
[CV] END colsample_bytree=0.9, gamma=0.25, learning_rate=0.15, max_depth=4, min_child_weight=4, n_estimators=800, reg_alpha=0.05, reg_lambda=1.5, subsample=0.6; total time=   0.5s
[CV] END colsample_bytree=0.9, gamma=0.1, learning_rate=0.05, max_depth=8, min_child_weight=3, n_estimators=400, reg_alpha=0.05, reg_lambda=3, subsample=0.9; total time=   0.5s
[CV] END colsample_bytree=1.0, gamma=0.1, learning_rate=0.15, max_depth=4, min_child_weight=5, n_estimators=200, reg_alpha=1, reg_lambda=0.1, subsample=1.0; total time=   0.2s
[CV] END colsample_bytree=0.7, gamma=0.15, learning_rate=0.01, max_depth=10, min_child_weight=4, n_estimators=700, reg_alpha=0, reg_lambda=1.5, subsample=0.8; total time=   0.6s
[CV] END colsample_bytree=0.8, gamma=0.4, learning_rate=0.1, max_depth=11, min_child_weight=1, n_estimators=500, reg_alpha=0.05, reg_lambda=1.5, subsample=0.8; total time=   0.5s
[CV] END colsample_bytree=0.9, gamma=0.25, learning_rate=0.2, max_depth=6, min_child_weight=5, n_estimators=400, reg_alpha=0.005, reg_lambda=1, subsample=1.0; total time=   0.3s
[CV] END colsample_bytree=1.0, gamma=0.1, learning_rate=0.01, max_depth=5, min_child_weight=7, n_estimators=400, reg_alpha=0.01, reg_lambda=2, subsample=0.8; total time=   0.3s
[CV] END colsample_bytree=0.8, gamma=0, learning_rate=0.2, max_depth=6, min_child_weight=2, n_estimators=200, reg_alpha=1, reg_lambda=0.5, subsample=0.8; total time=   0.2s
[CV] END colsample_bytree=0.8, gamma=0.1, learning_rate=0.15, max_depth=6, min_child_weight=2, n_estimators=600, reg_alpha=0.05, reg_lambda=0.5, subsample=0.7; total time=   0.4s
[CV] END colsample_bytree=1.0, gamma=0.05, learning_rate=0.05, max_depth=6, min_child_weight=3, n_estimators=800, reg_alpha=0.005, reg_lambda=2.5, subsample=0.9; total time=   0.9s
[CV] END colsample_bytree=0.9, gamma=0.15, learning_rate=0.01, max_depth=8, min_child_weight=2, n_estimators=400, reg_alpha=0.1, reg_lambda=3, subsample=0.8; total time=   0.5s
[CV] END colsample_bytree=0.6, gamma=0.4, learning_rate=0.01, max_depth=5, min_child_weight=5, n_estimators=800, reg_alpha=0, reg_lambda=2.5, subsample=0.6; total time=   0.5s
[CV] END colsample_bytree=0.6, gamma=0.5, learning_rate=0.1, max_depth=8, min_child_weight=7, n_estimators=400, reg_alpha=0.05, reg_lambda=1.5, subsample=0.8; total time=   0.2s
[CV] END colsample_bytree=0.7, gamma=0.2, learning_rate=0.01, max_depth=3, min_child_weight=4, n_estimators=300, reg_alpha=1, reg_lambda=2.5, subsample=0.7; total time=   0.2s
[CV] END colsample_bytree=0.8, gamma=0.2, learning_rate=0.15, max_depth=4, min_child_weight=1, n_estimators=800, reg_alpha=0.5, reg_lambda=2.5, subsample=0.7; total time=   0.5s
[CV] END colsample_bytree=0.6, gamma=0.5, learning_rate=0.01, max_depth=4, min_child_weight=2, n_estimators=800, reg_alpha=0.01, reg_lambda=0.1, subsample=1.0; total time=   0.4s
[CV] END colsample_bytree=0.7, gamma=0.2, learning_rate=0.01, max_depth=11, min_child_weight=4, n_estimators=300, reg_alpha=0.01, reg_lambda=2, subsample=0.9; total time=   0.3s
[CV] END colsample_bytree=0.7, gamma=0.3, learning_rate=0.01, max_depth=6, min_child_weight=6, n_estimators=100, reg_alpha=1, reg_lambda=0.5, subsample=0.6; total time=   0.1s
[CV] END colsample_bytree=0.6, gamma=0.5, learning_rate=0.15, max_depth=5, min_child_weight=7, n_estimators=300, reg_alpha=1, reg_lambda=2.5, subsample=0.6; total time=   0.1s
[CV] END colsample_bytree=0.8, gamma=0, learning_rate=0.15, max_depth=10, min_child_weight=2, n_estimators=600, reg_alpha=0.05, reg_lambda=2, subsample=0.9; total time=   0.5s
[CV] END colsample_bytree=0.9, gamma=0.15, learning_rate=0.1, max_depth=6, min_child_weight=1, n_estimators=500, reg_alpha=0.05, reg_lambda=1.5, subsample=0.6; total time=   0.5s
[CV] END colsample_bytree=0.9, gamma=0.05, learning_rate=0.1, max_depth=3, min_child_weight=7, n_estimators=200, reg_alpha=0.05, reg_lambda=2.5, subsample=0.6; total time=   0.1s
[CV] END colsample_bytree=0.9, gamma=0.05, learning_rate=0.1, max_depth=3, min_child_weight=7, n_estimators=200, reg_alpha=0.05, reg_lambda=2.5, subsample=0.6; total time=   0.1s
[CV] END colsample_bytree=0.6, gamma=0.4, learning_rate=0.05, max_depth=7, min_child_weight=3, n_estimators=100, reg_alpha=0.001, reg_lambda=2.5, subsample=0.7; total time=   0.1s
[CV] END colsample_bytree=0.8, gamma=0.5, learning_rate=0.1, max_depth=9, min_child_weight=5, n_estimators=300, reg_alpha=0.01, reg_lambda=2.5, subsample=0.6; total time=   0.2s
[CV] END colsample_bytree=1.0, gamma=0.15, learning_rate=0.1, max_depth=4, min_child_weight=2, n_estimators=100, reg_alpha=1, reg_lambda=1, subsample=0.6; total time=   0.1s
[CV] END colsample_bytree=1.0, gamma=0.15, learning_rate=0.1, max_depth=4, min_child_weight=2, n_estimators=100, reg_alpha=1, reg_lambda=1, subsample=0.6; total time=   0.1s
[CV] END colsample_bytree=0.9, gamma=0.5, learning_rate=0.1, max_depth=5, min_child_weight=5, n_estimators=500, reg_alpha=0.5, reg_lambda=0.5, subsample=0.7; total time=   0.4s
[CV] END colsample_bytree=0.6, gamma=0.15, learning_rate=0.1, max_depth=4, min_child_weight=7, n_estimators=100, reg_alpha=0.5, reg_lambda=1.5, subsample=0.9; total time=   0.1s
[CV] END colsample_bytree=0.6, gamma=0.15, learning_rate=0.1, max_depth=4, min_child_weight=7, n_estimators=100, reg_alpha=0.5, reg_lambda=1.5, subsample=0.9; total time=   0.1s
[CV] END colsample_bytree=0.6, gamma=0.15, learning_rate=0.1, max_depth=4, min_child_weight=7, n_estimators=100, reg_alpha=0.5, reg_lambda=1.5, subsample=0.9; total time=   0.1s
[CV] END colsample_bytree=1.0, gamma=0, learning_rate=0.1, max_depth=3, min_child_weight=5, n_estimators=500, reg_alpha=0.005, reg_lambda=1, subsample=0.8; total time=   0.3s
[CV] END colsample_bytree=0.9, gamma=0.2, learning_rate=0.1, max_depth=10, min_child_weight=6, n_estimators=100, reg_alpha=0.01, reg_lambda=3, subsample=0.7; total time=   0.1s
[CV] END colsample_bytree=0.7, gamma=0.3, learning_rate=0.1, max_depth=8, min_child_weight=7, n_estimators=400, reg_alpha=0.005, reg_lambda=2, subsample=1.0; total time=   0.3s
[CV] END colsample_bytree=0.9, gamma=0.05, learning_rate=0.15, max_depth=3, min_child_weight=7, n_estimators=200, reg_alpha=0, reg_lambda=0.1, subsample=0.6; total time=   0.1s
[CV] END colsample_bytree=0.9, gamma=0.05, learning_rate=0.15, max_depth=3, min_child_weight=7, n_estimators=200, reg_alpha=0, reg_lambda=0.1, subsample=0.6; total time=   0.1s
[CV] END colsample_bytree=0.9, gamma=0.05, learning_rate=0.1, max_depth=10, min_child_weight=7, n_estimators=300, reg_alpha=0.005, reg_lambda=0.5, subsample=0.6; total time=   0.2s
[CV] END colsample_bytree=0.8, gamma=0.2, learning_rate=0.1, max_depth=11, min_child_weight=2, n_estimators=300, reg_alpha=0, reg_lambda=0.1, subsample=0.7; total time=   0.3s
[CV] END colsample_bytree=0.8, gamma=0.25, learning_rate=0.2, max_depth=6, min_child_weight=3, n_estimators=300, reg_alpha=0, reg_lambda=0.1, subsample=1.0; total time=   0.3s
[CV] END colsample_bytree=0.8, gamma=0.5, learning_rate=0.05, max_depth=10, min_child_weight=3, n_estimators=700, reg_alpha=0.5, reg_lambda=3, subsample=0.7; total time=   0.6s
[CV] END colsample_bytree=0.9, gamma=0.1, learning_rate=0.1, max_depth=8, min_child_weight=5, n_estimators=700, reg_alpha=0.001, reg_lambda=1.5, subsample=1.0; total time=   0.6s
[CV] END colsample_bytree=0.8, gamma=0, learning_rate=0.01, max_depth=11, min_child_weight=6, n_estimators=800, reg_alpha=0, reg_lambda=2, subsample=0.6; total time=   0.5s
[CV] END colsample_bytree=0.8, gamma=0, learning_rate=0.15, max_depth=7, min_child_weight=1, n_estimators=200, reg_alpha=0.01, reg_lambda=1, subsample=0.8; total time=   0.2s
[CV] END colsample_bytree=0.6, gamma=0.25, learning_rate=0.2, max_depth=7, min_child_weight=1, n_estimators=100, reg_alpha=0.005, reg_lambda=2.5, subsample=1.0; total time=   0.1s
[CV] END colsample_bytree=0.7, gamma=0.3, learning_rate=0.1, max_depth=8, min_child_weight=1, n_estimators=600, reg_alpha=0.001, reg_lambda=2, subsample=0.8; total time=   0.6s
[CV] END colsample_bytree=1.0, gamma=0.3, learning_rate=0.15, max_depth=9, min_child_weight=6, n_estimators=800, reg_alpha=0.5, reg_lambda=0.5, subsample=0.8; total time=   0.6s
[CV] END colsample_bytree=0.9, gamma=0.2, learning_rate=0.1, max_depth=5, min_child_weight=3, n_estimators=100, reg_alpha=1, reg_lambda=0.1, subsample=0.6; total time=   0.1s
[CV] END colsample_bytree=0.6, gamma=0, learning_rate=0.05, max_depth=11, min_child_weight=3, n_estimators=300, reg_alpha=0.5, reg_lambda=2.5, subsample=0.7; total time=   0.3s
[CV] END colsample_bytree=0.9, gamma=0, learning_rate=0.01, max_depth=4, min_child_weight=5, n_estimators=300, reg_alpha=1, reg_lambda=0.5, subsample=0.7; total time=   0.2s
[CV] END colsample_bytree=0.7, gamma=0.15, learning_rate=0.01, max_depth=10, min_child_weight=4, n_estimators=700, reg_alpha=0, reg_lambda=1.5, subsample=0.8; total time=   0.6s
[CV] END colsample_bytree=0.9, gamma=0.25, learning_rate=0.2, max_depth=6, min_child_weight=5, n_estimators=400, reg_alpha=0.005, reg_lambda=1, subsample=1.0; total time=   0.3s
[CV] END colsample_bytree=0.9, gamma=0.3, learning_rate=0.01, max_depth=5, min_child_weight=6, n_estimators=200, reg_alpha=0.5, reg_lambda=0.1, subsample=0.6; total time=   0.2s
[CV] END colsample_bytree=0.9, gamma=0.1, learning_rate=0.2, max_depth=6, min_child_weight=4, n_estimators=500, reg_alpha=0, reg_lambda=2.5, subsample=0.9; total time=   0.4s
[CV] END colsample_bytree=0.8, gamma=0.1, learning_rate=0.15, max_depth=6, min_child_weight=2, n_estimators=600, reg_alpha=0.05, reg_lambda=0.5, subsample=0.7; total time=   0.4s
[CV] END colsample_bytree=1.0, gamma=0.25, learning_rate=0.05, max_depth=11, min_child_weight=7, n_estimators=400, reg_alpha=1, reg_lambda=2.5, subsample=0.7; total time=   0.3s
[CV] END colsample_bytree=0.9, gamma=0.3, learning_rate=0.2, max_depth=11, min_child_weight=3, n_estimators=800, reg_alpha=1, reg_lambda=2, subsample=0.9; total time=   0.7s
[CV] END colsample_bytree=0.7, gamma=0.25, learning_rate=0.2, max_depth=8, min_child_weight=3, n_estimators=400, reg_alpha=1, reg_lambda=0.5, subsample=0.6; total time=   0.3s
[CV] END colsample_bytree=0.7, gamma=0.05, learning_rate=0.1, max_depth=7, min_child_weight=2, n_estimators=600, reg_alpha=1, reg_lambda=0.5, subsample=0.8; total time=   0.5s
[CV] END colsample_bytree=0.8, gamma=0.5, learning_rate=0.05, max_depth=6, min_child_weight=5, n_estimators=500, reg_alpha=1, reg_lambda=2, subsample=0.8; total time=   0.4s
[CV] END colsample_bytree=0.8, gamma=0.2, learning_rate=0.15, max_depth=4, min_child_weight=1, n_estimators=800, reg_alpha=0.5, reg_lambda=2.5, subsample=0.7; total time=   0.6s
[CV] END colsample_bytree=0.7, gamma=0.2, learning_rate=0.2, max_depth=6, min_child_weight=1, n_estimators=200, reg_alpha=0, reg_lambda=3, subsample=0.9; total time=   0.2s
[CV] END colsample_bytree=0.7, gamma=0.2, learning_rate=0.15, max_depth=9, min_child_weight=3, n_estimators=500, reg_alpha=0.01, reg_lambda=3, subsample=1.0; total time=   0.4s
[CV] END colsample_bytree=0.6, gamma=0.5, learning_rate=0.01, max_depth=9, min_child_weight=2, n_estimators=700, reg_alpha=1, reg_lambda=2, subsample=0.7; total time=   0.6s
[CV] END colsample_bytree=0.9, gamma=0.15, learning_rate=0.1, max_depth=6, min_child_weight=1, n_estimators=500, reg_alpha=0.05, reg_lambda=1.5, subsample=0.6; total time=   0.5s
[CV] END colsample_bytree=0.7, gamma=0.5, learning_rate=0.2, max_depth=8, min_child_weight=5, n_estimators=600, reg_alpha=0.1, reg_lambda=2, subsample=0.8; total time=   0.4s
[CV] END colsample_bytree=0.8, gamma=0.25, learning_rate=0.2, max_depth=7, min_child_weight=3, n_estimators=500, reg_alpha=1, reg_lambda=2.5, subsample=0.6; total time=   0.3s
[CV] END colsample_bytree=1.0, gamma=0.2, learning_rate=0.1, max_depth=11, min_child_weight=4, n_estimators=800, reg_alpha=0.01, reg_lambda=3, subsample=1.0; total time=   0.8s
[CV] END colsample_bytree=1.0, gamma=0, learning_rate=0.1, max_depth=3, min_child_weight=5, n_estimators=500, reg_alpha=0.005, reg_lambda=1, subsample=0.8; total time=   0.3s
[CV] END colsample_bytree=0.9, gamma=0.2, learning_rate=0.1, max_depth=10, min_child_weight=6, n_estimators=100, reg_alpha=0.01, reg_lambda=3, subsample=0.7; total time=   0.1s
[CV] END colsample_bytree=0.7, gamma=0.3, learning_rate=0.1, max_depth=8, min_child_weight=7, n_estimators=400, reg_alpha=0.005, reg_lambda=2, subsample=1.0; total time=   0.3s
[CV] END colsample_bytree=0.8, gamma=0.15, learning_rate=0.15, max_depth=9, min_child_weight=5, n_estimators=800, reg_alpha=0.005, reg_lambda=2, subsample=0.7; total time=   0.5s
[CV] END colsample_bytree=0.8, gamma=0.2, learning_rate=0.1, max_depth=11, min_child_weight=2, n_estimators=300, reg_alpha=0, reg_lambda=0.1, subsample=0.7; total time=   0.3s
[CV] END colsample_bytree=0.8, gamma=0.25, learning_rate=0.2, max_depth=6, min_child_weight=3, n_estimators=300, reg_alpha=0, reg_lambda=0.1, subsample=1.0; total time=   0.3s
[CV] END colsample_bytree=0.9, gamma=0, learning_rate=0.15, max_depth=6, min_child_weight=1, n_estimators=500, reg_alpha=0.1, reg_lambda=0.1, subsample=1.0; total time=   0.5s
[CV] END colsample_bytree=0.8, gamma=0.15, learning_rate=0.15, max_depth=10, min_child_weight=4, n_estimators=600, reg_alpha=0.001, reg_lambda=3, subsample=0.8; total time=   0.4s
[CV] END colsample_bytree=0.6, gamma=0.15, learning_rate=0.15, max_depth=11, min_child_weight=2, n_estimators=800, reg_alpha=0.1, reg_lambda=2, subsample=0.6; total time=   0.5s
[CV] END colsample_bytree=0.9, gamma=0.15, learning_rate=0.2, max_depth=5, min_child_weight=6, n_estimators=100, reg_alpha=0.005, reg_lambda=0.1, subsample=0.7; total time=   0.1s
[CV] END colsample_bytree=0.8, gamma=0.05, learning_rate=0.01, max_depth=7, min_child_weight=5, n_estimators=700, reg_alpha=0.005, reg_lambda=2, subsample=1.0; total time=   0.7s
[CV] END colsample_bytree=0.9, gamma=0.25, learning_rate=0.15, max_depth=4, min_child_weight=4, n_estimators=800, reg_alpha=0.05, reg_lambda=1.5, subsample=0.6; total time=   0.5s
[CV] END colsample_bytree=1.0, gamma=0.3, learning_rate=0.15, max_depth=9, min_child_weight=6, n_estimators=800, reg_alpha=0.5, reg_lambda=0.5, subsample=0.8; total time=   0.5s
[CV] END colsample_bytree=0.9, gamma=0.2, learning_rate=0.15, max_depth=5, min_child_weight=4, n_estimators=100, reg_alpha=0.1, reg_lambda=2, subsample=0.6; total time=   0.1s
[CV] END colsample_bytree=0.9, gamma=0.2, learning_rate=0.1, max_depth=5, min_child_weight=3, n_estimators=100, reg_alpha=1, reg_lambda=0.1, subsample=0.6; total time=   0.1s
[CV] END colsample_bytree=0.6, gamma=0.25, learning_rate=0.01, max_depth=6, min_child_weight=5, n_estimators=300, reg_alpha=0.05, reg_lambda=0.1, subsample=0.8; total time=   0.2s
[CV] END colsample_bytree=0.7, gamma=0.05, learning_rate=0.05, max_depth=8, min_child_weight=3, n_estimators=500, reg_alpha=1, reg_lambda=0.1, subsample=1.0; total time=   0.4s
[CV] END colsample_bytree=0.9, gamma=0, learning_rate=0.1, max_depth=9, min_child_weight=4, n_estimators=600, reg_alpha=0.005, reg_lambda=1, subsample=0.7; total time=   0.5s
[CV] END colsample_bytree=0.9, gamma=0.1, learning_rate=0.01, max_depth=8, min_child_weight=3, n_estimators=500, reg_alpha=0.01, reg_lambda=2.5, subsample=0.7; total time=   0.5s
Finished with exit code: 0

Executing: python /Users/baueteeling/Library/CloudStorage/OneDrive-Personal/ONEDRIVE/STUDIE/THESIS/AttritionMLOps/scripts/05_model_evaluator.py --input_file results/experiment_1/baseline/ibm/03_ibm_engineered_features.csv --model_path results/experiment_1/baseline/ibm/artifacts/model.pkl --output_dir results/experiment_1/baseline/ibm
Test set shape: (1470, 20)
Target distribution in test set:
Attrition
0    0.838776
1    0.161224
Name: proportion, dtype: float64
Calculated Metrics:
  Accuracy: 0.9612244897959183
  Precision (Weighted): 0.9608974771010766
  Recall (Weighted): 0.9612244897959183
  F1 Score (Weighted): 0.9598695584819071
  ROC AUC: 0.9700740193209934
  Classification Report:
{
  "0": {
    "precision": 0.962992125984252,
    "recall": 0.991889699918897,
    "f1-score": 0.9772273272073513,
    "support": 1233.0
  },
  "1": {
    "precision": 0.95,
    "recall": 0.8016877637130801,
    "f1-score": 0.8695652173913043,
    "support": 237.0
  },
  "accuracy": 0.9612244897959183,
  "macro avg": {
    "precision": 0.956496062992126,
    "recall": 0.8967887318159886,
    "f1-score": 0.9233962722993279,
    "support": 1470.0
  },
  "weighted avg": {
    "precision": 0.9608974771010766,
    "recall": 0.9612244897959183,
    "f1-score": 0.9598695584819071,
    "support": 1470.0
  }
}
  F1 Score: 0.9598695584819071
Evaluation summary saved to results/experiment_1/baseline/ibm/evaluation_summary.json
Finished with exit code: 0


Pipeline finished at 2025-05-21 16:56:15.219412
