Starting Baseline Pipeline for source: dirty_ibm at 2025-06-08T11:08:15.589748
Output Directory: results/experiment_3/run_20250608_110815/baseline/dirty_ibm
Evaluate Only: True
Reference Artifacts Directory: results/experiment_1/latest_artifacts/baseline/ibm

Executing: python /Users/baueteeling/Library/CloudStorage/OneDrive-Personal/ONEDRIVE/STUDIE/THESIS/AttritionMLOps/scripts/01_data_acquirer.py --input_file /Users/baueteeling/Library/CloudStorage/OneDrive-Personal/ONEDRIVE/STUDIE/THESIS/AttritionMLOps/scripts/../data/ibm_dataset_dirty.csv --output_file results/experiment_3/run_20250608_110815/baseline/dirty_ibm/01_dirty_ibm_acquired_data.csv
--- Starting Step 1: Data Loading ---
Loading data from /Users/baueteeling/Library/CloudStorage/OneDrive-Personal/ONEDRIVE/STUDIE/THESIS/AttritionMLOps/scripts/../data/ibm_dataset_dirty.csv...
Initial dataset shape: (1514, 35)
Checking for missing values...
585
Checking for duplicate rows...
1
Saving data to results/experiment_3/run_20250608_110815/baseline/dirty_ibm/01_dirty_ibm_acquired_data.csv...
--- Finished Step 1: Data Loading ---
Finished with exit code: 0

Executing: python /Users/baueteeling/Library/CloudStorage/OneDrive-Personal/ONEDRIVE/STUDIE/THESIS/AttritionMLOps/scripts/02a_preprocessorIBM.py --input_file results/experiment_3/run_20250608_110815/baseline/dirty_ibm/01_dirty_ibm_acquired_data.csv --output_file results/experiment_3/run_20250608_110815/baseline/dirty_ibm/02_dirty_ibm_preprocessed_data.csv
--- Starting Step 2: Pre-processing IBM dataset ---
Input file: results/experiment_3/run_20250608_110815/baseline/dirty_ibm/01_dirty_ibm_acquired_data.csv
Output file: results/experiment_3/run_20250608_110815/baseline/dirty_ibm/02_dirty_ibm_preprocessed_data.csv
Preprocessor artifact path: artifacts/IBM_preprocessor.pkl
Loading data from results/experiment_3/run_20250608_110815/baseline/dirty_ibm/01_dirty_ibm_acquired_data.csv...
Removed columns: ['YearsWithCurrManager', 'TrainingTimesLastYear', 'StockOptionLevel', 'StandardHours', 'RelationshipSatisfaction', 'PercentSalaryHike', 'Over18', 'NumCompaniesWorked', 'MonthlyRate', 'HourlyRate', 'EmployeeCount', 'EducationField', 'Education', 'DailyRate', 'BusinessTravel', 'JobRole']
Replaced 'Research & Development' with 'Other' in 'Department' column.
Numerical features (13): ['Age', 'DistanceFromHome', 'EmployeeNumber', 'EnvironmentSatisfaction', 'JobInvolvement', 'JobLevel', 'JobSatisfaction', 'PerformanceRating', 'TotalWorkingYears', 'WorkLifeBalance', 'YearsAtCompany', 'YearsInCurrentRole', 'YearsSinceLastPromotion']
Categorical features (5): ['Department', 'Gender', 'MaritalStatus', 'MonthlyIncome', 'OverTime']
Checking for missing values... 585
Filled 0 missing values in 'EnvironmentSatisfaction' with median: 3.0
Filled 0 missing values in 'JobSatisfaction' with median: 3.0
Filled 0 missing values in 'WorkLifeBalance' with median: 3.0
Filled missing 'MonthlyIncome' with median (6210.625) before binning.
Categorized 'MonthlyIncome' into 10 bins (1-10).
Saving data to results/experiment_3/run_20250608_110815/baseline/dirty_ibm/02_dirty_ibm_preprocessed_data.csv...
Processed data shape: (1514, 18)
Processed data saved to: results/experiment_3/run_20250608_110815/baseline/dirty_ibm/02_dirty_ibm_preprocessed_data.csv
Saving data to results/experiment_3/run_20250608_110815/baseline/dirty_ibm/02_dirty_ibm_preprocessed_data.csv...
Final processed data saved to: results/experiment_3/run_20250608_110815/baseline/dirty_ibm/02_dirty_ibm_preprocessed_data.csv
--- Finished Step 2: Pre-processing ---
Finished with exit code: 0

Executing: python /Users/baueteeling/Library/CloudStorage/OneDrive-Personal/ONEDRIVE/STUDIE/THESIS/AttritionMLOps/scripts/03_feature_engineer.py --input_file results/experiment_3/run_20250608_110815/baseline/dirty_ibm/02_dirty_ibm_preprocessed_data.csv --output_file results/experiment_3/run_20250608_110815/baseline/dirty_ibm/03_dirty_ibm_engineered_features.csv --feature_selector_path results/experiment_1/latest_artifacts/baseline/ibm/artifacts/feature_selector.pkl --expected_cols_path results/experiment_1/latest_artifacts/baseline/ibm/artifacts/expected_cols.json --apply_only
--- Starting Step 3: Feature Engineering ---
Loading data from results/experiment_3/run_20250608_110815/baseline/dirty_ibm/02_dirty_ibm_preprocessed_data.csv...
One-hot encoding categorical columns: ['Department', 'Gender', 'MaritalStatus', 'OverTime']
Shape after one-hot encoding: (1514, 52)
Handling column standardization. Training mode for expected_cols.json: False.
Expected columns (post-OHE) loaded from results/experiment_1/latest_artifacts/baseline/ibm/artifacts/expected_cols.json.
Dropped unexpected columns: ['Department_Finance', 'Department_HR', 'Department_Hum Res', 'Department_Human Resource', 'Department_IT', 'Department_Marketing', 'Department_R&D', 'Department_R&D Lab', 'Department_ResDev', 'Department_Research and Dev', 'Department_Sale', 'Department_Sale Dept', 'Department_Sales ', 'Department_Saless', 'Gender_ fem ', 'Gender_F', 'Gender_M', 'Gender_Mal', 'Gender_female', 'MaritalStatus_DIVORCED', 'MaritalStatus_MARRIED', 'MaritalStatus_SINGLE', 'OverTime_ NO ', 'OverTime_ YES ', 'OverTime_N', 'OverTime_Y', 'OverTime_no', 'OverTime_yes'].
Columns aligned. Original shape: (1514, 52), Aligned shape: (1514, 24).
Shape after handle_missing_columns: (1514, 24)
Creating new features...
PCA explained variance ratio: [0.24489065 0.11504487 0.08224641]
Shape after create_new_features: (1514, 29)
Saving data to results/experiment_3/run_20250608_110815/baseline/dirty_ibm/03_dirty_ibm_engineered_features.csv...
Engineered data shape: (1514, 30)
--- Finished Step 3: Feature Engineering ---
Finished with exit code: 0

Executing: python /Users/baueteeling/Library/CloudStorage/OneDrive-Personal/ONEDRIVE/STUDIE/THESIS/AttritionMLOps/scripts/05_model_evaluator.py --input_file results/experiment_3/run_20250608_110815/baseline/dirty_ibm/03_dirty_ibm_engineered_features.csv --model_path results/experiment_3/run_20250608_110815/baseline/dirty_ibm/artifacts/model.pkl --output_dir results/experiment_3/run_20250608_110815/baseline/dirty_ibm
Loading data from: results/experiment_3/run_20250608_110815/baseline/dirty_ibm/03_dirty_ibm_engineered_features.csv
Splitting data into train/test to isolate the hold-out test set...
Test set shape: X_test (152, 28), y_test (152,)
Traceback (most recent call last):
  File "/Users/baueteeling/Library/CloudStorage/OneDrive-Personal/ONEDRIVE/STUDIE/THESIS/AttritionMLOps/scripts/05_model_evaluator.py", line 69, in <module>
    raise FileNotFoundError(f"Scaler file not found at {scaler_path}. Ensure it was saved by the trainer.")
FileNotFoundError: Scaler file not found at results/experiment_3/run_20250608_110815/baseline/dirty_ibm/artifacts/scaler.pkl. Ensure it was saved by the trainer.
Finished with exit code: 1


PIPELINE FAILED: Script python /Users/baueteeling/Library/CloudStorage/OneDrive-Personal/ONEDRIVE/STUDIE/THESIS/AttritionMLOps/scripts/05_model_evaluator.py --input_file results/experiment_3/run_20250608_110815/baseline/dirty_ibm/03_dirty_ibm_engineered_features.csv --model_path results/experiment_3/run_20250608_110815/baseline/dirty_ibm/artifacts/model.pkl --output_dir results/experiment_3/run_20250608_110815/baseline/dirty_ibm failed with exit code 1. Check log: results/experiment_3/run_20250608_110815/baseline/dirty_ibm/pipeline_log.txt

Pipeline finished at 2025-06-08T11:08:18.284252
Total pipeline duration: 0 days 00:00:02.694504
Resource usage logged to: results/experiment_3/run_20250608_110815/baseline/dirty_ibm/resource_usage.csv
